*SIMULATION OVERVIEW FILE
  

*DSSAT Cropping System Model Ver. 4.8.2.000 -release  JUN 22, 2025 18:25:50

*RUN   1        : WW23_G-1                  CSCER048 CIOB2301    1
 MODEL          : CSCER048 - Wheat
 EXPERIMENT     : CIOB2301 WH ROOTS ANATOMY
 DATA PATH      : C:\DSSAT48\Wheat\
 TREATMENT  1   : WW23_G-1                  CSCER048


 CROP           : Wheat            CULTIVAR : ENTRY 1          ECOTYPE :CI0501
 STARTING DATE  : SEP  1 2022
 PLANTING DATE  : NOV 23 2022      PLANTS/m2 :   137.0    ROW SPACING :  20.cm
 WEATHER        : CIOB   2022
 SOIL           : CCENEB2301     TEXTURE : C     -   CIMMYT CENEB 710
 SOIL INIT COND : DEPTH:120cm EXTR. H2O: 82.8mm  NO3:484.0kg/ha  NH4:341.8kg/ha
 WATER BALANCE  : IRRIGATE ON REPORTED DATE(S)
 IRRIGATION     :      525 mm IN     9 APPLICATIONS
 NITROGEN BAL.  : SOIL-N & N-UPTAKE SIMULATION; NO N-FIXATION
 N-FERTILIZER   :      323 kg/ha IN     3 APPLICATIONS
 RESIDUE/MANURE : INITIAL :     0 kg/ha ;    2222 kg/ha IN     1 APPLICATIONS
 ENVIRONM. OPT. : DAYL=    0.00  SRAD=    0.00  TMAX=    0.00  TMIN=    0.00
                  RAIN=    0.00  CO2 =    0.00  DEW =    0.00  WIND=    0.00
 SIMULATION OPT : WATER   :Y  NITROGEN:Y  N-FIX:N  PHOSPH :N  PESTS  :N
                  PHOTO   :C  ET      :R  INFIL:S  HYDROL :R  SOM    :G
                  CO2 418ppm  NSWIT   :1  EVAP :R  SOIL   :2  STEMP  :D
 MANAGEMENT OPT : PLANTING:R  IRRIG   :R  FERT :R  RESIDUE:R  HARVEST:M
                  WEATHER :M  TILLAGE :Y

*SUMMARY OF SOIL AND GENETIC INPUT PARAMETERS

   SOIL LOWER UPPER   SAT  EXTR  INIT   ROOT   BULK     pH    NO3    NH4    ORG
  DEPTH LIMIT LIMIT    SW    SW    SW   DIST   DENS                          C
   cm   cm3/cm3    cm3/cm3    cm3/cm3         g/cm3         ugN/g  ugN/g     %
-------------------------------------------------------------------------------
  0-  5 0.143 0.204 0.268 0.061 0.172   1.00   1.35   8.50  29.00  29.00   1.08
  5- 15 0.143 0.204 0.268 0.061 0.172   1.00   1.35   8.50  29.00  29.00   1.08
 15- 30 0.143 0.204 0.268 0.061 0.172   1.00   1.35   8.50  29.00  29.00   1.08
 30- 45 0.166 0.234 0.274 0.068 0.225   0.41   1.58   8.50  27.00  16.00   0.80
 45- 60 0.166 0.234 0.274 0.068 0.225   0.41   1.58   8.50  27.00  16.00   0.80
 60- 90 0.155 0.227 0.276 0.072 0.207   0.22   1.50   7.90  53.00  33.00   0.87
 90-120 0.188 0.263 0.308 0.075 0.263   0.12   1.38   8.00   0.01   0.01   0.40

TOT-120  19.6  27.8  33.8   8.3  26.0  <--cm   -  kg/ha-->  484.0  341.8 137370
SOIL ALBEDO    : 0.13      EVAPORATION LIMIT : 6.00         MIN. FACTOR  : 1.00
RUNOFF CURVE # :61.00      DRAINAGE RATE     : 0.60         FERT. FACTOR : 1.00

 Wheat            CULTIVAR: 555175-ENTRY 1            ECOTYPE: CI0501
   P1V   P1D    P5    G1    G2    G3 PHINT
   2.0  41.9 568.1  21.5  47.4  8.00 113.2


*SIMULATED CROP AND SOIL STATUS AT MAIN DEVELOPMENT STAGES
  
 RUN NO.      1   ROOTS ANATOMY                                               

 ...... DATE ......  GROWTH STAGE BIOMASS   LEAF       CROP N      STRESS
 YEARDOY DOM MON DAP ............. kg/ha AREA NUMBER  kg/ha   %   H2O    N
 2022327  23 Nov   0 7 Sowing         0  0.00   0.0     0   0.0  0.00  0.00
 2022328  24 Nov   1 8 Germinate      0  0.00   0.0     0   0.0  0.00  0.00
 2022330  26 Nov   3 9 Emergence      0  0.00   0.0     0   0.0  0.00  0.00
 2023026  26 Jan  64 1 Term Spklt  1815  3.12  10.0    85   4.7  0.21  0.09
 2023044  13 Feb  82 2 End Veg     3833  5.67  12.5   128   3.3  0.04  0.00
 2023057  26 Feb  95 3 End Ear Gr  6325  4.75  12.5   124   2.0  0.00  0.00
 2023072  13 Mar 110 4 Beg Gr Fil  9932  3.86  12.5   123   1.2  0.09  0.00
 2023102  12 Apr 140 5 End Gr Fil 17625  0.56  12.5   183   1.0  0.04  0.00
 2023102  12 Apr 140 6 Harvest    17625  0.56  12.5   183   1.0  0.24  0.00
  
 BIOMASS = Above-ground dry wt (kg/ha)
 LEAF AREA  = Leaf area index (m2/m2)
 LEAF NUMBER  = Leaf number produced on main axis
 CROP N  = Above-ground N (kg/ha)
 CROP N% = Above-ground N conc (%)
 H2O STRESS = Photosynthesis stress,average (0-1,0=none)
 N STRESS = Photosynthesis stress,average (0-1,0=none)
  

*MAIN GROWTH AND DEVELOPMENT VARIABLES

@     VARIABLE                             SIMULATED     MEASURED
      --------                             ---------     --------
      Emergence (DAP)                            3            7
      Anthesis (DAP)                            97           97
      Maturity (DAP)                           140          140
      Product wt (kg dm/ha;no loss)           6850         6797
      Product unit weight (g dm)             0.047        0.047
      Product number (no/m2)                 14452        14451
      Product number (no/group)               29.7        -99.0
      Product harvest index (ratio)           0.39         0.43
      Maximum leaf area index                  5.7          5.7
      Final leaf number (one axis)            12.5        -99.0
      Final shoot number (#/m2)                487          -99
      Canopy (tops) wt (kg dm/ha)            17625        15757
      Vegetative wt (kg dm/ha)               10774         8960
      Root wt (kg dm/ha)                       964          -99
      Assimilate wt (kg dm/ha)               19485          -99
      Senesced wt (kg dm/ha)                   255          -99
      Reserves wt (kg dm/ha)                  5468          -99
      N uptake (kg/ha)                       201.9        -99.0
      N senesced (kg/ha)                       3.5        -99.0
      Above-ground N (kg/ha)                 182.9        -99.0
      Root N (kg/ha)                          16.2        -99.0
      Vegetative N (kg/ha)                    37.7        -99.0
      Product N (kg/ha)                      145.2        139.5
      Product N harvest index (ratio)         0.79       -99.00
      Product N (%)                            2.1          2.1
      Vegetative N (%)                         0.4        -99.0
      Leaf+stem wt,anthesis (kg dm/ha)        6823          -99
      Leaf+stem N,anthesis (kg/ha)           123.9        -99.0
      Leaf N,anthesis (%)                      3.1        -99.0

  Seed N must be added to N uptake to obtain a         
  balance with N in above-ground plus root material    

  Measured data are obtained from the A file,either    
  directly or by calculation from other other variables
  using the expressions given below:                   
                                                       
  Product wt       Harvest wt (HWAH) /                 
                               (Harvest%/100) (HPC)    
  Canopy wt        Grain wt (HWAM)+Vegetative wt (VWAm)
  Vegetative wt    Canopy wt (CWAM) - grain wt (HWAM)  
    = leaf+stem+retained dead material                 
  Product unit wt  Grain yield (HWAM)/Grain # (G#AM)   
  Product #/area   Product#/tiller (H#SM) *            
                                   tiller number (T#AM)
  Product #/group  Product#/area (H#AM) /              
                                tiller number (T#AM)   
  Harvest index    Product wt (HWAM)/Canopy wt.(CWAM)  
                                                       
  The same procedure is followed for nitrogen aspects  


*ENVIRONMENTAL AND STRESS FACTORS

 |-----Development Phase------|-------------Environment--------------|----------------Stress-----------------|
                              |--------Average-------|---Cumulative--|         (0=Min, 1=Max Stress)         |
                         Time  Temp  Temp Solar Photop         Evapo |----Water---|--Nitrogen--|--Phosphorus-|
                         Span   Max   Min   Rad  [day]   Rain  Trans  Photo         Photo         Photo
                         days    °C    °C MJ/m2     hr     mm     mm  synth Growth ' synth Growth  synth Growth
--------------------------------------------------------------------------------------------------------------
 Germinate  - Term Spklt   61  26.3   7.2  14.3  11.35   10.0   92.3  0.208  0.307  0.090  0.090 -99.00 -99.00
 Term Spklt - End Veg      18  25.5   5.6  15.4  11.75    0.1   52.6  0.040  0.083  0.000  0.000 -99.00 -99.00
 End Veg    - End Ear Gr   13  23.1   8.1  15.5  12.08   12.1   39.1  0.000  0.016  0.000  0.000 -99.00 -99.00
 End Ear Gr - Beg Gr Fil   15  27.8   6.9  20.2  12.43    0.1   57.3  0.090  0.142  0.000  0.000 -99.00 -99.00
 Beg Gr Fil - End Gr Fil   30  29.1   8.7  23.2  13.05   65.8  121.2  0.042  0.079  0.000  0.000 -99.00 -99.00
  
 Germinate  - End Gr Fil  137  26.7   7.4  17.2  11.96   88.1  362.5  0.117  0.182  0.040  0.040 -99.00 -99.00
--------------------------------------------------------------------------------------------------------------


*RESOURCE PRODUCTIVITY

 Growing season length: 137 days 

 Precipitation during growth season         88.1 mm[rain]
   Dry Matter Productivity                 20.01 kg[DM]/m3[rain]          =  200.1 kg[DM]/ha per mm[rain]
   Yield Productivity                       7.78 kg[grain yield]/m3[rain] =   77.8 kg[yield]/ha per mm[rain]

 Evapotranspiration during growth season   362.5 mm[ET]
   Dry Matter Productivity                  4.86 kg[DM]/m3[ET]            =   48.6 kg[DM]/ha per mm[ET]
   Yield Productivity                       1.89 kg[grain yield]/m3[ET]   =   18.9 kg[yield]/ha per mm[ET]

 Transpiration during growth season        284.1 mm[EP]
   Dry Matter Productivity                  6.20 kg[DM]/m3[EP]            =   62.0 kg[DM]/ha per mm[EP]
   Yield Productivity                       2.41 kg[grain yield]/m3[EP]   =   24.1 kg[yield]/ha per mm[EP]

 Irrigation during growing season          525.1 mm[irrig]
   Dry Matter Productivity                  3.36 kg[DM]/m3[irrig]         =   33.6 kg[DM]/ha per mm[irrig]
   Yield Productivity                       1.30 kg[grain yield]/m3[irrig]=   13.0 kg[yield]/ha per mm[irrig]

 N applied during growing season           323.0 kg[N applied]/ha
   Dry Matter Productivity                  54.6 kg[DM]/kg[N applied]
   Yield Productivity                       21.2 kg[yield]/kg[N applied]

 N uptake during growing season            201.9 kg[N uptake]/ha
   Dry Matter Productivity                  87.3 kg[DM]/kg[N uptake]
   Yield Productivity                       33.9 kg[yield]/kg[N uptake]

--------------------------------------------------------------------------------------------------------------

          WHEAT YIELD :     6850 kg/ha    [Dry weight] 

**************************************************************************************************************
  

*DSSAT Cropping System Model Ver. 4.8.2.000 -release  JUN 22, 2025 18:25:50

*RUN   2        : WW23_G-2                  CSCER048 CIOB2301    2
 MODEL          : CSCER048 - Wheat
 EXPERIMENT     : CIOB2301 WH ROOTS ANATOMY
 DATA PATH      : C:\DSSAT48\Wheat\
 TREATMENT  2   : WW23_G-2                  CSCER048


 CROP           : Wheat            CULTIVAR : ENTRY 2          ECOTYPE :CI0500
 STARTING DATE  : SEP  1 2022
 PLANTING DATE  : NOV 23 2022      PLANTS/m2 :   137.0    ROW SPACING :  20.cm
 WEATHER        : CIOB   2022
 SOIL           : CCENEB2301     TEXTURE : C     -   CIMMYT CENEB 710
 SOIL INIT COND : DEPTH:120cm EXTR. H2O: 82.8mm  NO3:484.0kg/ha  NH4:341.8kg/ha
 WATER BALANCE  : IRRIGATE ON REPORTED DATE(S)
 IRRIGATION     :      525 mm IN     9 APPLICATIONS
 NITROGEN BAL.  : SOIL-N & N-UPTAKE SIMULATION; NO N-FIXATION
 N-FERTILIZER   :      323 kg/ha IN     3 APPLICATIONS
 RESIDUE/MANURE : INITIAL :     0 kg/ha ;    2222 kg/ha IN     1 APPLICATIONS
 ENVIRONM. OPT. : DAYL=    0.00  SRAD=    0.00  TMAX=    0.00  TMIN=    0.00
                  RAIN=    0.00  CO2 =    0.00  DEW =    0.00  WIND=    0.00
 SIMULATION OPT : WATER   :Y  NITROGEN:Y  N-FIX:N  PHOSPH :N  PESTS  :N
                  PHOTO   :C  ET      :R  INFIL:S  HYDROL :R  SOM    :G
                  CO2 418ppm  NSWIT   :1  EVAP :R  SOIL   :2  STEMP  :D
 MANAGEMENT OPT : PLANTING:R  IRRIG   :R  FERT :R  RESIDUE:R  HARVEST:M
                  WEATHER :M  TILLAGE :Y

*SUMMARY OF SOIL AND GENETIC INPUT PARAMETERS

   SOIL LOWER UPPER   SAT  EXTR  INIT   ROOT   BULK     pH    NO3    NH4    ORG
  DEPTH LIMIT LIMIT    SW    SW    SW   DIST   DENS                          C
   cm   cm3/cm3    cm3/cm3    cm3/cm3         g/cm3         ugN/g  ugN/g     %
-------------------------------------------------------------------------------
  0-  5 0.143 0.204 0.268 0.061 0.172   1.00   1.35   8.50  29.00  29.00   1.08
  5- 15 0.143 0.204 0.268 0.061 0.172   1.00   1.35   8.50  29.00  29.00   1.08
 15- 30 0.143 0.204 0.268 0.061 0.172   1.00   1.35   8.50  29.00  29.00   1.08
 30- 45 0.166 0.234 0.274 0.068 0.225   0.41   1.58   8.50  27.00  16.00   0.80
 45- 60 0.166 0.234 0.274 0.068 0.225   0.41   1.58   8.50  27.00  16.00   0.80
 60- 90 0.155 0.227 0.276 0.072 0.207   0.22   1.50   7.90  53.00  33.00   0.87
 90-120 0.188 0.263 0.308 0.075 0.263   0.12   1.38   8.00   0.01   0.01   0.40

TOT-120  19.6  27.8  33.8   8.3  26.0  <--cm   -  kg/ha-->  484.0  341.8 137370
SOIL ALBEDO    : 0.13      EVAPORATION LIMIT : 6.00         MIN. FACTOR  : 1.00
RUNOFF CURVE # :61.00      DRAINAGE RATE     : 0.60         FERT. FACTOR : 1.00

 Wheat            CULTIVAR: 457793-ENTRY 2            ECOTYPE: CI0500
   P1V   P1D    P5    G1    G2    G3 PHINT
   2.0  35.1 563.8  23.5  42.5  6.35 115.4


*SIMULATED CROP AND SOIL STATUS AT MAIN DEVELOPMENT STAGES
  
 RUN NO.      2   ROOTS ANATOMY                                               

 ...... DATE ......  GROWTH STAGE BIOMASS   LEAF       CROP N      STRESS
 YEARDOY DOM MON DAP ............. kg/ha AREA NUMBER  kg/ha   %   H2O    N
 2022327  23 Nov   0 7 Sowing         0  0.00   0.0     0   0.0  0.00  0.00
 2022328  24 Nov   1 8 Germinate      0  0.00   0.0     0   0.0  0.00  0.00
 2022330  26 Nov   3 9 Emergence      0  0.00   0.0     0   0.0  0.00  0.00
 2023024  24 Jan  62 1 Term Spklt  1809  3.10   9.6    84   4.6  0.26  0.07
 2023043  12 Feb  81 2 End Veg     3976  6.05  12.2   131   3.3  0.03  0.00
 2023056  25 Feb  94 3 End Ear Gr  6372  5.17  12.2   128   2.0  0.00  0.00
 2023071  12 Mar 109 4 Beg Gr Fil 10040  4.15  12.2   127   1.3  0.09  0.00
 2023101  11 Apr 139 5 End Gr Fil 18089  1.05  12.2   193   1.1  0.10  0.00
 2023101  11 Apr 139 6 Harvest    18089  1.05  12.2   193   1.1  0.59  0.00
  

*MAIN GROWTH AND DEVELOPMENT VARIABLES

@     VARIABLE                             SIMULATED     MEASURED
      --------                             ---------     --------
      Emergence (DAP)                            3            7
      Anthesis (DAP)                            96           96
      Maturity (DAP)                           139          139
      Product wt (kg dm/ha;no loss)           6960         6933
      Product unit weight (g dm)             0.043        0.042
      Product number (no/m2)                 16377        16392
      Product number (no/group)               32.2        -99.0
      Product harvest index (ratio)           0.38         0.41
      Maximum leaf area index                  6.1          6.1
      Final leaf number (one axis)            12.2        -99.0
      Final shoot number (#/m2)                508          -99
      Canopy (tops) wt (kg dm/ha)            18089        16796
      Vegetative wt (kg dm/ha)               11129         9863
      Root wt (kg dm/ha)                       985          -99
      Assimilate wt (kg dm/ha)               20020          -99
      Senesced wt (kg dm/ha)                   291          -99
      Reserves wt (kg dm/ha)                  5678          -99
      N uptake (kg/ha)                       212.3        -99.0
      N senesced (kg/ha)                       4.0        -99.0
      Above-ground N (kg/ha)                 192.5        -99.0
      Root N (kg/ha)                          16.6        -99.0
      Vegetative N (kg/ha)                    40.5        -99.0
      Product N (kg/ha)                      152.0        142.3
      Product N harvest index (ratio)         0.79       -99.00
      Product N (%)                            2.2          2.1
      Vegetative N (%)                         0.4        -99.0
      Leaf+stem wt,anthesis (kg dm/ha)        6912          -99
      Leaf+stem N,anthesis (kg/ha)           127.4        -99.0
      Leaf N,anthesis (%)                      3.1        -99.0

*ENVIRONMENTAL AND STRESS FACTORS

 |-----Development Phase------|-------------Environment--------------|----------------Stress-----------------|
                              |--------Average-------|---Cumulative--|         (0=Min, 1=Max Stress)         |
                         Time  Temp  Temp Solar Photop         Evapo |----Water---|--Nitrogen--|--Phosphorus-|
                         Span   Max   Min   Rad  [day]   Rain  Trans  Photo         Photo         Photo
                         days    °C    °C MJ/m2     hr     mm     mm  synth Growth ' synth Growth  synth Growth
--------------------------------------------------------------------------------------------------------------
 Germinate  - Term Spklt   59  26.3   7.3  14.2  11.34   10.0   92.7  0.263  0.369  0.074  0.074 -99.00 -99.00
 Term Spklt - End Veg      19  25.6   5.5  15.8  11.72    0.1   57.6  0.028  0.055  0.000  0.000 -99.00 -99.00
 End Veg    - End Ear Gr   13  22.7   8.0  14.8  12.06   12.1   37.1  0.000  0.003  0.000  0.000 -99.00 -99.00
 End Ear Gr - Beg Gr Fil   15  27.3   6.7  20.1  12.41    0.1   55.8  0.095  0.146  0.000  0.000 -99.00 -99.00
 Beg Gr Fil - End Gr Fil   30  29.1   8.8  23.1  13.02   65.8  126.6  0.096  0.130  0.000  0.000 -99.00 -99.00
  
 Germinate  - End Gr Fil  136  26.6   7.3  17.1  11.95   88.1  369.8  0.150  0.213  0.032  0.032 -99.00 -99.00
--------------------------------------------------------------------------------------------------------------


*RESOURCE PRODUCTIVITY

 Growing season length: 136 days 

 Precipitation during growth season         88.1 mm[rain]
   Dry Matter Productivity                 20.53 kg[DM]/m3[rain]          =  205.3 kg[DM]/ha per mm[rain]
   Yield Productivity                       7.90 kg[grain yield]/m3[rain] =   79.0 kg[yield]/ha per mm[rain]

 Evapotranspiration during growth season   369.8 mm[ET]
   Dry Matter Productivity                  4.89 kg[DM]/m3[ET]            =   48.9 kg[DM]/ha per mm[ET]
   Yield Productivity                       1.88 kg[grain yield]/m3[ET]   =   18.8 kg[yield]/ha per mm[ET]

 Transpiration during growth season        311.0 mm[EP]
   Dry Matter Productivity                  5.82 kg[DM]/m3[EP]            =   58.2 kg[DM]/ha per mm[EP]
   Yield Productivity                       2.24 kg[grain yield]/m3[EP]   =   22.4 kg[yield]/ha per mm[EP]

 Irrigation during growing season          525.1 mm[irrig]
   Dry Matter Productivity                  3.44 kg[DM]/m3[irrig]         =   34.4 kg[DM]/ha per mm[irrig]
   Yield Productivity                       1.33 kg[grain yield]/m3[irrig]=   13.3 kg[yield]/ha per mm[irrig]

 N applied during growing season           323.0 kg[N applied]/ha
   Dry Matter Productivity                  56.0 kg[DM]/kg[N applied]
   Yield Productivity                       21.5 kg[yield]/kg[N applied]

 N uptake during growing season            212.3 kg[N uptake]/ha
   Dry Matter Productivity                  85.2 kg[DM]/kg[N uptake]
   Yield Productivity                       32.8 kg[yield]/kg[N uptake]

--------------------------------------------------------------------------------------------------------------

          WHEAT YIELD :     6960 kg/ha    [Dry weight] 

**************************************************************************************************************
  

*DSSAT Cropping System Model Ver. 4.8.2.000 -release  JUN 22, 2025 18:25:50

*RUN   3        : WW23_G-3                  CSCER048 CIOB2301    3
 MODEL          : CSCER048 - Wheat
 EXPERIMENT     : CIOB2301 WH ROOTS ANATOMY
 DATA PATH      : C:\DSSAT48\Wheat\
 TREATMENT  3   : WW23_G-3                  CSCER048


 CROP           : Wheat            CULTIVAR : ENTRY 3          ECOTYPE :CI0501
 STARTING DATE  : SEP  1 2022
 PLANTING DATE  : NOV 23 2022      PLANTS/m2 :   137.0    ROW SPACING :  20.cm
 WEATHER        : CIOB   2022
 SOIL           : CCENEB2301     TEXTURE : C     -   CIMMYT CENEB 710
 SOIL INIT COND : DEPTH:120cm EXTR. H2O: 82.8mm  NO3:484.0kg/ha  NH4:341.8kg/ha
 WATER BALANCE  : IRRIGATE ON REPORTED DATE(S)
 IRRIGATION     :      525 mm IN     9 APPLICATIONS
 NITROGEN BAL.  : SOIL-N & N-UPTAKE SIMULATION; NO N-FIXATION
 N-FERTILIZER   :      323 kg/ha IN     3 APPLICATIONS
 RESIDUE/MANURE : INITIAL :     0 kg/ha ;    2222 kg/ha IN     1 APPLICATIONS
 ENVIRONM. OPT. : DAYL=    0.00  SRAD=    0.00  TMAX=    0.00  TMIN=    0.00
                  RAIN=    0.00  CO2 =    0.00  DEW =    0.00  WIND=    0.00
 SIMULATION OPT : WATER   :Y  NITROGEN:Y  N-FIX:N  PHOSPH :N  PESTS  :N
                  PHOTO   :C  ET      :R  INFIL:S  HYDROL :R  SOM    :G
                  CO2 418ppm  NSWIT   :1  EVAP :R  SOIL   :2  STEMP  :D
 MANAGEMENT OPT : PLANTING:R  IRRIG   :R  FERT :R  RESIDUE:R  HARVEST:M
                  WEATHER :M  TILLAGE :Y

*SUMMARY OF SOIL AND GENETIC INPUT PARAMETERS

   SOIL LOWER UPPER   SAT  EXTR  INIT   ROOT   BULK     pH    NO3    NH4    ORG
  DEPTH LIMIT LIMIT    SW    SW    SW   DIST   DENS                          C
   cm   cm3/cm3    cm3/cm3    cm3/cm3         g/cm3         ugN/g  ugN/g     %
-------------------------------------------------------------------------------
  0-  5 0.143 0.204 0.268 0.061 0.172   1.00   1.35   8.50  29.00  29.00   1.08
  5- 15 0.143 0.204 0.268 0.061 0.172   1.00   1.35   8.50  29.00  29.00   1.08
 15- 30 0.143 0.204 0.268 0.061 0.172   1.00   1.35   8.50  29.00  29.00   1.08
 30- 45 0.166 0.234 0.274 0.068 0.225   0.41   1.58   8.50  27.00  16.00   0.80
 45- 60 0.166 0.234 0.274 0.068 0.225   0.41   1.58   8.50  27.00  16.00   0.80
 60- 90 0.155 0.227 0.276 0.072 0.207   0.22   1.50   7.90  53.00  33.00   0.87
 90-120 0.188 0.263 0.308 0.075 0.263   0.12   1.38   8.00   0.01   0.01   0.40

TOT-120  19.6  27.8  33.8   8.3  26.0  <--cm   -  kg/ha-->  484.0  341.8 137370
SOIL ALBEDO    : 0.13      EVAPORATION LIMIT : 6.00         MIN. FACTOR  : 1.00
RUNOFF CURVE # :61.00      DRAINAGE RATE     : 0.60         FERT. FACTOR : 1.00

 Wheat            CULTIVAR: 518062-ENTRY 3            ECOTYPE: CI0501
   P1V   P1D    P5    G1    G2    G3 PHINT
   2.0  36.8 561.8  22.5  48.7  5.63 134.1


*SIMULATED CROP AND SOIL STATUS AT MAIN DEVELOPMENT STAGES
  
 RUN NO.      3   ROOTS ANATOMY                                               

 ...... DATE ......  GROWTH STAGE BIOMASS   LEAF       CROP N      STRESS
 YEARDOY DOM MON DAP ............. kg/ha AREA NUMBER  kg/ha   %   H2O    N
 2022327  23 Nov   0 7 Sowing         0  0.00   0.0     0   0.0  0.00  0.00
 2022328  24 Nov   1 8 Germinate      0  0.00   0.0     0   0.0  0.00  0.00
 2022330  26 Nov   3 9 Emergence      0  0.00   0.0     0   0.0  0.00  0.00
 2023023  23 Jan  61 1 Term Spklt  1537  2.75   8.3    73   4.8  0.23  0.10
 2023042  11 Feb  80 2 End Veg     3699  5.62  10.5   122   3.3  0.04  0.00
 2023055  24 Feb  93 3 End Ear Gr  6122  4.75  10.5   118   1.9  0.00  0.00
 2023071  12 Mar 109 4 Beg Gr Fil  9862  3.81  10.5   117   1.2  0.09  0.00
 2023100  10 Apr 138 5 End Gr Fil 17467  0.63  10.5   191   1.1  0.00  0.00
 2023100  10 Apr 138 6 Harvest    17467  0.63  10.5   191   1.1  0.00  0.00
  

*MAIN GROWTH AND DEVELOPMENT VARIABLES

@     VARIABLE                             SIMULATED     MEASURED
      --------                             ---------     --------
      Emergence (DAP)                            3            7
      Anthesis (DAP)                            95           95
      Maturity (DAP)                           138          138
      Product wt (kg dm/ha;no loss)           7284         7260
      Product unit weight (g dm)             0.049        0.049
      Product number (no/m2)                 14956        14914
      Product number (no/group)               32.1        -99.0
      Product harvest index (ratio)           0.42         0.43
      Maximum leaf area index                  5.6          5.6
      Final leaf number (one axis)            10.5        -99.0
      Final shoot number (#/m2)                466          -99
      Canopy (tops) wt (kg dm/ha)            17467        16824
      Vegetative wt (kg dm/ha)               10183         9564
      Root wt (kg dm/ha)                       921          -99
      Assimilate wt (kg dm/ha)               19217          -99
      Senesced wt (kg dm/ha)                   220          -99
      Reserves wt (kg dm/ha)                  5077          -99
      N uptake (kg/ha)                       208.5        -99.0
      N senesced (kg/ha)                       3.0        -99.0
      Above-ground N (kg/ha)                 190.8        -99.0
      Root N (kg/ha)                          15.5        -99.0
      Vegetative N (kg/ha)                    36.2        -99.0
      Product N (kg/ha)                      154.6        139.3
      Product N harvest index (ratio)         0.81       -99.00
      Product N (%)                            2.1          1.9
      Vegetative N (%)                         0.4        -99.0
      Leaf+stem wt,anthesis (kg dm/ha)        6551          -99
      Leaf+stem N,anthesis (kg/ha)           118.1        -99.0
      Leaf N,anthesis (%)                      3.1        -99.0

*ENVIRONMENTAL AND STRESS FACTORS

 |-----Development Phase------|-------------Environment--------------|----------------Stress-----------------|
                              |--------Average-------|---Cumulative--|         (0=Min, 1=Max Stress)         |
                         Time  Temp  Temp Solar Photop         Evapo |----Water---|--Nitrogen--|--Phosphorus-|
                         Span   Max   Min   Rad  [day]   Rain  Trans  Photo         Photo         Photo
                         days    °C    °C MJ/m2     hr     mm     mm  synth Growth ' synth Growth  synth Growth
--------------------------------------------------------------------------------------------------------------
 Germinate  - Term Spklt   58  26.4   7.3  14.2  11.34   10.0   82.8  0.226  0.335  0.096  0.096 -99.00 -99.00
 Term Spklt - End Veg      19  25.5   5.4  15.9  11.70    0.1   57.1  0.040  0.080  0.000  0.000 -99.00 -99.00
 End Veg    - End Ear Gr   13  22.9   7.9  15.1  12.03   12.1   37.8  0.000  0.013  0.000  0.000 -99.00 -99.00
 End Ear Gr - Beg Gr Fil   16  27.1   6.7  19.6  12.39    0.1   58.6  0.091  0.141  0.000  0.000 -99.00 -99.00
 Beg Gr Fil - End Gr Fil   29  29.0   8.7  23.0  13.01   65.8  121.0  0.001  0.024  0.000  0.000 -99.00 -99.00
  
 Germinate  - End Gr Fil  135  26.6   7.3  17.1  11.94   88.1  357.3  0.114  0.178  0.041  0.041 -99.00 -99.00
--------------------------------------------------------------------------------------------------------------


*RESOURCE PRODUCTIVITY

 Growing season length: 135 days 

 Precipitation during growth season         88.1 mm[rain]
   Dry Matter Productivity                 19.83 kg[DM]/m3[rain]          =  198.3 kg[DM]/ha per mm[rain]
   Yield Productivity                       8.27 kg[grain yield]/m3[rain] =   82.7 kg[yield]/ha per mm[rain]

 Evapotranspiration during growth season   357.3 mm[ET]
   Dry Matter Productivity                  4.89 kg[DM]/m3[ET]            =   48.9 kg[DM]/ha per mm[ET]
   Yield Productivity                       2.04 kg[grain yield]/m3[ET]   =   20.4 kg[yield]/ha per mm[ET]

 Transpiration during growth season        279.2 mm[EP]
   Dry Matter Productivity                  6.26 kg[DM]/m3[EP]            =   62.6 kg[DM]/ha per mm[EP]
   Yield Productivity                       2.61 kg[grain yield]/m3[EP]   =   26.1 kg[yield]/ha per mm[EP]

 Irrigation during growing season          525.1 mm[irrig]
   Dry Matter Productivity                  3.33 kg[DM]/m3[irrig]         =   33.3 kg[DM]/ha per mm[irrig]
   Yield Productivity                       1.39 kg[grain yield]/m3[irrig]=   13.9 kg[yield]/ha per mm[irrig]

 N applied during growing season           323.0 kg[N applied]/ha
   Dry Matter Productivity                  54.1 kg[DM]/kg[N applied]
   Yield Productivity                       22.6 kg[yield]/kg[N applied]

 N uptake during growing season            208.5 kg[N uptake]/ha
   Dry Matter Productivity                  83.8 kg[DM]/kg[N uptake]
   Yield Productivity                       34.9 kg[yield]/kg[N uptake]

--------------------------------------------------------------------------------------------------------------

          WHEAT YIELD :     7284 kg/ha    [Dry weight] 

**************************************************************************************************************
  

*DSSAT Cropping System Model Ver. 4.8.2.000 -release  JUN 22, 2025 18:25:50

*RUN   4        : WW23_G-4                  CSCER048 CIOB2301    4
 MODEL          : CSCER048 - Wheat
 EXPERIMENT     : CIOB2301 WH ROOTS ANATOMY
 DATA PATH      : C:\DSSAT48\Wheat\
 TREATMENT  4   : WW23_G-4                  CSCER048


 CROP           : Wheat            CULTIVAR : ENTRY 4          ECOTYPE :CI0501
 STARTING DATE  : SEP  1 2022
 PLANTING DATE  : NOV 23 2022      PLANTS/m2 :   137.0    ROW SPACING :  20.cm
 WEATHER        : CIOB   2022
 SOIL           : CCENEB2301     TEXTURE : C     -   CIMMYT CENEB 710
 SOIL INIT COND : DEPTH:120cm EXTR. H2O: 82.8mm  NO3:484.0kg/ha  NH4:341.8kg/ha
 WATER BALANCE  : IRRIGATE ON REPORTED DATE(S)
 IRRIGATION     :      525 mm IN     9 APPLICATIONS
 NITROGEN BAL.  : SOIL-N & N-UPTAKE SIMULATION; NO N-FIXATION
 N-FERTILIZER   :      323 kg/ha IN     3 APPLICATIONS
 RESIDUE/MANURE : INITIAL :     0 kg/ha ;    2222 kg/ha IN     1 APPLICATIONS
 ENVIRONM. OPT. : DAYL=    0.00  SRAD=    0.00  TMAX=    0.00  TMIN=    0.00
                  RAIN=    0.00  CO2 =    0.00  DEW =    0.00  WIND=    0.00
 SIMULATION OPT : WATER   :Y  NITROGEN:Y  N-FIX:N  PHOSPH :N  PESTS  :N
                  PHOTO   :C  ET      :R  INFIL:S  HYDROL :R  SOM    :G
                  CO2 418ppm  NSWIT   :1  EVAP :R  SOIL   :2  STEMP  :D
 MANAGEMENT OPT : PLANTING:R  IRRIG   :R  FERT :R  RESIDUE:R  HARVEST:M
                  WEATHER :M  TILLAGE :Y

*SUMMARY OF SOIL AND GENETIC INPUT PARAMETERS

   SOIL LOWER UPPER   SAT  EXTR  INIT   ROOT   BULK     pH    NO3    NH4    ORG
  DEPTH LIMIT LIMIT    SW    SW    SW   DIST   DENS                          C
   cm   cm3/cm3    cm3/cm3    cm3/cm3         g/cm3         ugN/g  ugN/g     %
-------------------------------------------------------------------------------
  0-  5 0.143 0.204 0.268 0.061 0.172   1.00   1.35   8.50  29.00  29.00   1.08
  5- 15 0.143 0.204 0.268 0.061 0.172   1.00   1.35   8.50  29.00  29.00   1.08
 15- 30 0.143 0.204 0.268 0.061 0.172   1.00   1.35   8.50  29.00  29.00   1.08
 30- 45 0.166 0.234 0.274 0.068 0.225   0.41   1.58   8.50  27.00  16.00   0.80
 45- 60 0.166 0.234 0.274 0.068 0.225   0.41   1.58   8.50  27.00  16.00   0.80
 60- 90 0.155 0.227 0.276 0.072 0.207   0.22   1.50   7.90  53.00  33.00   0.87
 90-120 0.188 0.263 0.308 0.075 0.263   0.12   1.38   8.00   0.01   0.01   0.40

TOT-120  19.6  27.8  33.8   8.3  26.0  <--cm   -  kg/ha-->  484.0  341.8 137370
SOIL ALBEDO    : 0.13      EVAPORATION LIMIT : 6.00         MIN. FACTOR  : 1.00
RUNOFF CURVE # :61.00      DRAINAGE RATE     : 0.60         FERT. FACTOR : 1.00

 Wheat            CULTIVAR: 617502-ENTRY 4            ECOTYPE: CI0501
   P1V   P1D    P5    G1    G2    G3 PHINT
   2.0  42.0 589.1  21.1  49.6  8.00 105.2


*SIMULATED CROP AND SOIL STATUS AT MAIN DEVELOPMENT STAGES
  
 RUN NO.      4   ROOTS ANATOMY                                               

 ...... DATE ......  GROWTH STAGE BIOMASS   LEAF       CROP N      STRESS
 YEARDOY DOM MON DAP ............. kg/ha AREA NUMBER  kg/ha   %   H2O    N
 2022327  23 Nov   0 7 Sowing         0  0.00   0.0     0   0.0  0.00  0.00
 2022328  24 Nov   1 8 Germinate      0  0.00   0.0     0   0.0  0.00  0.00
 2022330  26 Nov   3 9 Emergence      0  0.00   0.0     0   0.0  0.00  0.00
 2023026  26 Jan  64 1 Term Spklt  1749  2.94  10.7    82   4.7  0.20  0.09
 2023044  13 Feb  82 2 End Veg     3759  5.46  13.4   125   3.3  0.04  0.00
 2023057  26 Feb  95 3 End Ear Gr  6239  4.56  13.4   122   2.0  0.00  0.00
 2023072  13 Mar 110 4 Beg Gr Fil  9821  3.69  13.4   120   1.2  0.09  0.00
 2023103  13 Apr 141 5 End Gr Fil 17565  0.58  13.4   190   1.1  0.06  0.00
 2023103  13 Apr 141 6 Harvest    17565  0.58  13.4   190   1.1  0.18  0.00
  

*MAIN GROWTH AND DEVELOPMENT VARIABLES

@     VARIABLE                             SIMULATED     MEASURED
      --------                             ---------     --------
      Emergence (DAP)                            3            7
      Anthesis (DAP)                            97           97
      Maturity (DAP)                           141          141
      Product wt (kg dm/ha;no loss)           7228         7183
      Product unit weight (g dm)             0.050        0.049
      Product number (no/m2)                 14573        14585
      Product number (no/group)               28.7        -99.0
      Product harvest index (ratio)           0.41         0.46
      Maximum leaf area index                  5.5          5.5
      Final leaf number (one axis)            13.4        -99.0
      Final shoot number (#/m2)                507          -99
      Canopy (tops) wt (kg dm/ha)            17565        15767
      Vegetative wt (kg dm/ha)               10337         8584
      Root wt (kg dm/ha)                       951          -99
      Assimilate wt (kg dm/ha)               19411          -99
      Senesced wt (kg dm/ha)                   264          -99
      Reserves wt (kg dm/ha)                  5073          -99
      N uptake (kg/ha)                       209.1        -99.0
      N senesced (kg/ha)                       3.6        -99.0
      Above-ground N (kg/ha)                 190.2        -99.0
      Root N (kg/ha)                          16.0        -99.0
      Vegetative N (kg/ha)                    37.4        -99.0
      Product N (kg/ha)                      152.9        153.2
      Product N harvest index (ratio)         0.80       -99.00
      Product N (%)                            2.1          2.1
      Vegetative N (%)                         0.4        -99.0
      Leaf+stem wt,anthesis (kg dm/ha)        6733          -99
      Leaf+stem N,anthesis (kg/ha)           121.3        -99.0
      Leaf N,anthesis (%)                      3.1        -99.0

*ENVIRONMENTAL AND STRESS FACTORS

 |-----Development Phase------|-------------Environment--------------|----------------Stress-----------------|
                              |--------Average-------|---Cumulative--|         (0=Min, 1=Max Stress)         |
                         Time  Temp  Temp Solar Photop         Evapo |----Water---|--Nitrogen--|--Phosphorus-|
                         Span   Max   Min   Rad  [day]   Rain  Trans  Photo         Photo         Photo
                         days    °C    °C MJ/m2     hr     mm     mm  synth Growth ' synth Growth  synth Growth
--------------------------------------------------------------------------------------------------------------
 Germinate  - Term Spklt   61  26.3   7.2  14.3  11.35   10.0   91.7  0.203  0.299  0.092  0.092 -99.00 -99.00
 Term Spklt - End Veg      18  25.5   5.6  15.4  11.75    0.1   52.5  0.037  0.077  0.000  0.000 -99.00 -99.00
 End Veg    - End Ear Gr   13  23.1   8.1  15.5  12.08   12.1   39.1  0.000  0.019  0.000  0.000 -99.00 -99.00
 End Ear Gr - Beg Gr Fil   15  27.8   6.9  20.2  12.43    0.1   57.4  0.089  0.141  0.000  0.000 -99.00 -99.00
 Beg Gr Fil - End Gr Fil   31  29.1   8.8  23.2  13.07   65.8  122.7  0.063  0.104  0.000  0.000 -99.00 -99.00
  
 Germinate  - End Gr Fil  138  26.7   7.4  17.2  11.97   88.1  363.4  0.118  0.183  0.040  0.040 -99.00 -99.00
--------------------------------------------------------------------------------------------------------------


*RESOURCE PRODUCTIVITY

 Growing season length: 138 days 

 Precipitation during growth season         88.1 mm[rain]
   Dry Matter Productivity                 19.94 kg[DM]/m3[rain]          =  199.4 kg[DM]/ha per mm[rain]
   Yield Productivity                       8.20 kg[grain yield]/m3[rain] =   82.0 kg[yield]/ha per mm[rain]

 Evapotranspiration during growth season   363.4 mm[ET]
   Dry Matter Productivity                  4.83 kg[DM]/m3[ET]            =   48.3 kg[DM]/ha per mm[ET]
   Yield Productivity                       1.99 kg[grain yield]/m3[ET]   =   19.9 kg[yield]/ha per mm[ET]

 Transpiration during growth season        282.1 mm[EP]
   Dry Matter Productivity                  6.23 kg[DM]/m3[EP]            =   62.3 kg[DM]/ha per mm[EP]
   Yield Productivity                       2.56 kg[grain yield]/m3[EP]   =   25.6 kg[yield]/ha per mm[EP]

 Irrigation during growing season          525.1 mm[irrig]
   Dry Matter Productivity                  3.35 kg[DM]/m3[irrig]         =   33.5 kg[DM]/ha per mm[irrig]
   Yield Productivity                       1.38 kg[grain yield]/m3[irrig]=   13.8 kg[yield]/ha per mm[irrig]

 N applied during growing season           323.0 kg[N applied]/ha
   Dry Matter Productivity                  54.4 kg[DM]/kg[N applied]
   Yield Productivity                       22.4 kg[yield]/kg[N applied]

 N uptake during growing season            209.1 kg[N uptake]/ha
   Dry Matter Productivity                  84.0 kg[DM]/kg[N uptake]
   Yield Productivity                       34.6 kg[yield]/kg[N uptake]

--------------------------------------------------------------------------------------------------------------

          WHEAT YIELD :     7228 kg/ha    [Dry weight] 

**************************************************************************************************************
  

*DSSAT Cropping System Model Ver. 4.8.2.000 -release  JUN 22, 2025 18:25:50

*RUN   5        : WW23_G-5                  CSCER048 CIOB2301    5
 MODEL          : CSCER048 - Wheat
 EXPERIMENT     : CIOB2301 WH ROOTS ANATOMY
 DATA PATH      : C:\DSSAT48\Wheat\
 TREATMENT  5   : WW23_G-5                  CSCER048


 CROP           : Wheat            CULTIVAR : ENTRY 5          ECOTYPE :CI0501
 STARTING DATE  : SEP  1 2022
 PLANTING DATE  : NOV 23 2022      PLANTS/m2 :   137.0    ROW SPACING :  20.cm
 WEATHER        : CIOB   2022
 SOIL           : CCENEB2301     TEXTURE : C     -   CIMMYT CENEB 710
 SOIL INIT COND : DEPTH:120cm EXTR. H2O: 82.8mm  NO3:484.0kg/ha  NH4:341.8kg/ha
 WATER BALANCE  : IRRIGATE ON REPORTED DATE(S)
 IRRIGATION     :      525 mm IN     9 APPLICATIONS
 NITROGEN BAL.  : SOIL-N & N-UPTAKE SIMULATION; NO N-FIXATION
 N-FERTILIZER   :      323 kg/ha IN     3 APPLICATIONS
 RESIDUE/MANURE : INITIAL :     0 kg/ha ;    2222 kg/ha IN     1 APPLICATIONS
 ENVIRONM. OPT. : DAYL=    0.00  SRAD=    0.00  TMAX=    0.00  TMIN=    0.00
                  RAIN=    0.00  CO2 =    0.00  DEW =    0.00  WIND=    0.00
 SIMULATION OPT : WATER   :Y  NITROGEN:Y  N-FIX:N  PHOSPH :N  PESTS  :N
                  PHOTO   :C  ET      :R  INFIL:S  HYDROL :R  SOM    :G
                  CO2 418ppm  NSWIT   :1  EVAP :R  SOIL   :2  STEMP  :D
 MANAGEMENT OPT : PLANTING:R  IRRIG   :R  FERT :R  RESIDUE:R  HARVEST:M
                  WEATHER :M  TILLAGE :Y

*SUMMARY OF SOIL AND GENETIC INPUT PARAMETERS

   SOIL LOWER UPPER   SAT  EXTR  INIT   ROOT   BULK     pH    NO3    NH4    ORG
  DEPTH LIMIT LIMIT    SW    SW    SW   DIST   DENS                          C
   cm   cm3/cm3    cm3/cm3    cm3/cm3         g/cm3         ugN/g  ugN/g     %
-------------------------------------------------------------------------------
  0-  5 0.143 0.204 0.268 0.061 0.172   1.00   1.35   8.50  29.00  29.00   1.08
  5- 15 0.143 0.204 0.268 0.061 0.172   1.00   1.35   8.50  29.00  29.00   1.08
 15- 30 0.143 0.204 0.268 0.061 0.172   1.00   1.35   8.50  29.00  29.00   1.08
 30- 45 0.166 0.234 0.274 0.068 0.225   0.41   1.58   8.50  27.00  16.00   0.80
 45- 60 0.166 0.234 0.274 0.068 0.225   0.41   1.58   8.50  27.00  16.00   0.80
 60- 90 0.155 0.227 0.276 0.072 0.207   0.22   1.50   7.90  53.00  33.00   0.87
 90-120 0.188 0.263 0.308 0.075 0.263   0.12   1.38   8.00   0.01   0.01   0.40

TOT-120  19.6  27.8  33.8   8.3  26.0  <--cm   -  kg/ha-->  484.0  341.8 137370
SOIL ALBEDO    : 0.13      EVAPORATION LIMIT : 6.00         MIN. FACTOR  : 1.00
RUNOFF CURVE # :61.00      DRAINAGE RATE     : 0.60         FERT. FACTOR : 1.00

 Wheat            CULTIVAR: 617636-ENTRY 5            ECOTYPE: CI0501
   P1V   P1D    P5    G1    G2    G3 PHINT
   2.0  47.3 603.9  20.2  49.1  2.24  90.8


*SIMULATED CROP AND SOIL STATUS AT MAIN DEVELOPMENT STAGES
  
 RUN NO.      5   ROOTS ANATOMY                                               

 ...... DATE ......  GROWTH STAGE BIOMASS   LEAF       CROP N      STRESS
 YEARDOY DOM MON DAP ............. kg/ha AREA NUMBER  kg/ha   %   H2O    N
 2022327  23 Nov   0 7 Sowing         0  0.00   0.0     0   0.0  0.00  0.00
 2022328  24 Nov   1 8 Germinate      0  0.00   0.0     0   0.0  0.00  0.00
 2022330  26 Nov   3 9 Emergence      0  0.00   0.0     0   0.0  0.00  0.00
 2023028  28 Jan  66 1 Term Spklt  1748  2.78  12.6    82   4.7  0.18  0.09
 2023046  15 Feb  84 2 End Veg     3807  5.25  15.6   127   3.3  0.03  0.00
 2023059  28 Feb  97 3 End Ear Gr  6341  4.41  15.6   124   1.9  0.00  0.00
 2023074  15 Mar 112 4 Beg Gr Fil  9970  3.62  15.6   122   1.2  0.09  0.00
 2023106  16 Apr 144 5 End Gr Fil 17424  0.35  15.6   186   1.1  0.13  0.00
 2023106  16 Apr 144 6 Harvest    17424  0.35  15.6   186   1.1  0.34  0.00
  

*MAIN GROWTH AND DEVELOPMENT VARIABLES

@     VARIABLE                             SIMULATED     MEASURED
      --------                             ---------     --------
      Emergence (DAP)                            3            7
      Anthesis (DAP)                           100          100
      Maturity (DAP)                           144          144
      Product wt (kg dm/ha;no loss)           6961         7020
      Product unit weight (g dm)             0.049        0.049
      Product number (no/m2)                 14176        14222
      Product number (no/group)               14.5        -99.0
      Product harvest index (ratio)           0.40         0.34
      Maximum leaf area index                  5.3          5.3
      Final leaf number (one axis)            15.6        -99.0
      Final shoot number (#/m2)                977          -99
      Canopy (tops) wt (kg dm/ha)            17424        20705
      Vegetative wt (kg dm/ha)               10464        13685
      Root wt (kg dm/ha)                       954          -99
      Assimilate wt (kg dm/ha)               19324          -99
      Senesced wt (kg dm/ha)                   311          -99
      Reserves wt (kg dm/ha)                  5304          -99
      N uptake (kg/ha)                       205.0        -99.0
      N senesced (kg/ha)                       4.3        -99.0
      Above-ground N (kg/ha)                 185.9        -99.0
      Root N (kg/ha)                          15.7        -99.0
      Vegetative N (kg/ha)                    35.5        -99.0
      Product N (kg/ha)                      150.3        148.5
      Product N harvest index (ratio)         0.81       -99.00
      Product N (%)                            2.2          2.1
      Vegetative N (%)                         0.3        -99.0
      Leaf+stem wt,anthesis (kg dm/ha)        6972          -99
      Leaf+stem N,anthesis (kg/ha)           123.0        -99.0
      Leaf N,anthesis (%)                      3.0        -99.0

*ENVIRONMENTAL AND STRESS FACTORS

 |-----Development Phase------|-------------Environment--------------|----------------Stress-----------------|
                              |--------Average-------|---Cumulative--|         (0=Min, 1=Max Stress)         |
                         Time  Temp  Temp Solar Photop         Evapo |----Water---|--Nitrogen--|--Phosphorus-|
                         Span   Max   Min   Rad  [day]   Rain  Trans  Photo         Photo         Photo
                         days    °C    °C MJ/m2     hr     mm     mm  synth Growth ' synth Growth  synth Growth
--------------------------------------------------------------------------------------------------------------
 Germinate  - Term Spklt   63  26.2   7.1  14.3  11.36   10.0   94.6  0.182  0.273  0.095  0.095 -99.00 -99.00
 Term Spklt - End Veg      18  25.3   5.7  15.8  11.78    3.6   52.6  0.029  0.071  0.000  0.000 -99.00 -99.00
 End Veg    - End Ear Gr   13  23.7   8.2  15.9  12.13    8.6   40.5  0.000  0.007  0.000  0.000 -99.00 -99.00
 End Ear Gr - Beg Gr Fil   15  28.3   7.3  20.5  12.49    0.1   59.0  0.087  0.140  0.000  0.000 -99.00 -99.00
 Beg Gr Fil - End Gr Fil   32  29.1   9.0  23.5  13.14   65.8  117.0  0.133  0.182  0.000  0.000 -99.00 -99.00
  
 Germinate  - End Gr Fil  141  26.7   7.5  17.4  12.01   88.1  363.6  0.125  0.188  0.042  0.042 -99.00 -99.00
--------------------------------------------------------------------------------------------------------------


*RESOURCE PRODUCTIVITY

 Growing season length: 141 days 

 Precipitation during growth season         88.1 mm[rain]
   Dry Matter Productivity                 19.78 kg[DM]/m3[rain]          =  197.8 kg[DM]/ha per mm[rain]
   Yield Productivity                       7.90 kg[grain yield]/m3[rain] =   79.0 kg[yield]/ha per mm[rain]

 Evapotranspiration during growth season   363.6 mm[ET]
   Dry Matter Productivity                  4.79 kg[DM]/m3[ET]            =   47.9 kg[DM]/ha per mm[ET]
   Yield Productivity                       1.91 kg[grain yield]/m3[ET]   =   19.1 kg[yield]/ha per mm[ET]

 Transpiration during growth season        281.4 mm[EP]
   Dry Matter Productivity                  6.19 kg[DM]/m3[EP]            =   61.9 kg[DM]/ha per mm[EP]
   Yield Productivity                       2.47 kg[grain yield]/m3[EP]   =   24.7 kg[yield]/ha per mm[EP]

 Irrigation during growing season          525.1 mm[irrig]
   Dry Matter Productivity                  3.32 kg[DM]/m3[irrig]         =   33.2 kg[DM]/ha per mm[irrig]
   Yield Productivity                       1.33 kg[grain yield]/m3[irrig]=   13.3 kg[yield]/ha per mm[irrig]

 N applied during growing season           323.0 kg[N applied]/ha
   Dry Matter Productivity                  53.9 kg[DM]/kg[N applied]
   Yield Productivity                       21.5 kg[yield]/kg[N applied]

 N uptake during growing season            205.0 kg[N uptake]/ha
   Dry Matter Productivity                  85.0 kg[DM]/kg[N uptake]
   Yield Productivity                       34.0 kg[yield]/kg[N uptake]

--------------------------------------------------------------------------------------------------------------

          WHEAT YIELD :     6961 kg/ha    [Dry weight] 

**************************************************************************************************************
  

*DSSAT Cropping System Model Ver. 4.8.2.000 -release  JUN 22, 2025 18:25:50

*RUN   6        : WW23_G-6                  CSCER048 CIOB2301    6
 MODEL          : CSCER048 - Wheat
 EXPERIMENT     : CIOB2301 WH ROOTS ANATOMY
 DATA PATH      : C:\DSSAT48\Wheat\
 TREATMENT  6   : WW23_G-6                  CSCER048


 CROP           : Wheat            CULTIVAR : ENTRY 6          ECOTYPE :CI0500
 STARTING DATE  : SEP  1 2022
 PLANTING DATE  : NOV 23 2022      PLANTS/m2 :   137.0    ROW SPACING :  20.cm
 WEATHER        : CIOB   2022
 SOIL           : CCENEB2301     TEXTURE : C     -   CIMMYT CENEB 710
 SOIL INIT COND : DEPTH:120cm EXTR. H2O: 82.8mm  NO3:484.0kg/ha  NH4:341.8kg/ha
 WATER BALANCE  : IRRIGATE ON REPORTED DATE(S)
 IRRIGATION     :      525 mm IN     9 APPLICATIONS
 NITROGEN BAL.  : SOIL-N & N-UPTAKE SIMULATION; NO N-FIXATION
 N-FERTILIZER   :      323 kg/ha IN     3 APPLICATIONS
 RESIDUE/MANURE : INITIAL :     0 kg/ha ;    2222 kg/ha IN     1 APPLICATIONS
 ENVIRONM. OPT. : DAYL=    0.00  SRAD=    0.00  TMAX=    0.00  TMIN=    0.00
                  RAIN=    0.00  CO2 =    0.00  DEW =    0.00  WIND=    0.00
 SIMULATION OPT : WATER   :Y  NITROGEN:Y  N-FIX:N  PHOSPH :N  PESTS  :N
                  PHOTO   :C  ET      :R  INFIL:S  HYDROL :R  SOM    :G
                  CO2 418ppm  NSWIT   :1  EVAP :R  SOIL   :2  STEMP  :D
 MANAGEMENT OPT : PLANTING:R  IRRIG   :R  FERT :R  RESIDUE:R  HARVEST:M
                  WEATHER :M  TILLAGE :Y

*SUMMARY OF SOIL AND GENETIC INPUT PARAMETERS

   SOIL LOWER UPPER   SAT  EXTR  INIT   ROOT   BULK     pH    NO3    NH4    ORG
  DEPTH LIMIT LIMIT    SW    SW    SW   DIST   DENS                          C
   cm   cm3/cm3    cm3/cm3    cm3/cm3         g/cm3         ugN/g  ugN/g     %
-------------------------------------------------------------------------------
  0-  5 0.143 0.204 0.268 0.061 0.172   1.00   1.35   8.50  29.00  29.00   1.08
  5- 15 0.143 0.204 0.268 0.061 0.172   1.00   1.35   8.50  29.00  29.00   1.08
 15- 30 0.143 0.204 0.268 0.061 0.172   1.00   1.35   8.50  29.00  29.00   1.08
 30- 45 0.166 0.234 0.274 0.068 0.225   0.41   1.58   8.50  27.00  16.00   0.80
 45- 60 0.166 0.234 0.274 0.068 0.225   0.41   1.58   8.50  27.00  16.00   0.80
 60- 90 0.155 0.227 0.276 0.072 0.207   0.22   1.50   7.90  53.00  33.00   0.87
 90-120 0.188 0.263 0.308 0.075 0.263   0.12   1.38   8.00   0.01   0.01   0.40

TOT-120  19.6  27.8  33.8   8.3  26.0  <--cm   -  kg/ha-->  484.0  341.8 137370
SOIL ALBEDO    : 0.13      EVAPORATION LIMIT : 6.00         MIN. FACTOR  : 1.00
RUNOFF CURVE # :61.00      DRAINAGE RATE     : 0.60         FERT. FACTOR : 1.00

 Wheat            CULTIVAR: 474812-ENTRY 6            ECOTYPE: CI0500
   P1V   P1D    P5    G1    G2    G3 PHINT
   2.0  41.1 570.0  23.6  44.4  4.00  96.1


*SIMULATED CROP AND SOIL STATUS AT MAIN DEVELOPMENT STAGES
  
 RUN NO.      6   ROOTS ANATOMY                                               

 ...... DATE ......  GROWTH STAGE BIOMASS   LEAF       CROP N      STRESS
 YEARDOY DOM MON DAP ............. kg/ha AREA NUMBER  kg/ha   %   H2O    N
 2022327  23 Nov   0 7 Sowing         0  0.00   0.0     0   0.0  0.00  0.00
 2022328  24 Nov   1 8 Germinate      0  0.00   0.0     0   0.0  0.00  0.00
 2022330  26 Nov   3 9 Emergence      0  0.00   0.0     0   0.0  0.00  0.00
 2023027  27 Jan  65 1 Term Spklt  1952  3.17  11.8    91   4.6  0.24  0.08
 2023045  14 Feb  83 2 End Veg     3948  5.73  14.7   132   3.3  0.03  0.00
 2023058  27 Feb  96 3 End Ear Gr  6506  4.89  14.7   128   2.0  0.00  0.00
 2023073  14 Mar 111 4 Beg Gr Fil 10226  3.98  14.7   127   1.2  0.09  0.00
 2023103  13 Apr 141 5 End Gr Fil 17852  0.91  14.7   198   1.1  0.14  0.00
 2023103  13 Apr 141 6 Harvest    17852  0.91  14.7   198   1.1  0.53  0.00
  

*MAIN GROWTH AND DEVELOPMENT VARIABLES

@     VARIABLE                             SIMULATED     MEASURED
      --------                             ---------     --------
      Emergence (DAP)                            3            7
      Anthesis (DAP)                            99          100
      Maturity (DAP)                           141          143
      Product wt (kg dm/ha;no loss)           7250         6947
      Product unit weight (g dm)             0.044        0.042
      Product number (no/m2)                 16330        16489
      Product number (no/group)               22.7        -99.0
      Product harvest index (ratio)           0.41         0.39
      Maximum leaf area index                  5.7          5.7
      Final leaf number (one axis)            14.7        -99.0
      Final shoot number (#/m2)                721          -99
      Canopy (tops) wt (kg dm/ha)            17852        17928
      Vegetative wt (kg dm/ha)               10602        10981
      Root wt (kg dm/ha)                      1005          -99
      Assimilate wt (kg dm/ha)               19888          -99
      Senesced wt (kg dm/ha)                   361          -99
      Reserves wt (kg dm/ha)                  5156          -99
      N uptake (kg/ha)                       218.7        -99.0
      N senesced (kg/ha)                       5.0        -99.0
      Above-ground N (kg/ha)                 197.6        -99.0
      Root N (kg/ha)                          16.9        -99.0
      Vegetative N (kg/ha)                    40.1        -99.0
      Product N (kg/ha)                      157.5        133.9
      Product N harvest index (ratio)         0.80       -99.00
      Product N (%)                            2.2          1.9
      Vegetative N (%)                         0.4        -99.0
      Leaf+stem wt,anthesis (kg dm/ha)        7105          -99
      Leaf+stem N,anthesis (kg/ha)           127.8        -99.0
      Leaf N,anthesis (%)                      3.0        -99.0

*ENVIRONMENTAL AND STRESS FACTORS

 |-----Development Phase------|-------------Environment--------------|----------------Stress-----------------|
                              |--------Average-------|---Cumulative--|         (0=Min, 1=Max Stress)         |
                         Time  Temp  Temp Solar Photop         Evapo |----Water---|--Nitrogen--|--Phosphorus-|
                         Span   Max   Min   Rad  [day]   Rain  Trans  Photo         Photo         Photo
                         days    °C    °C MJ/m2     hr     mm     mm  synth Growth ' synth Growth  synth Growth
--------------------------------------------------------------------------------------------------------------
 Germinate  - Term Spklt   62  26.2   7.1  14.3  11.35   10.0   99.5  0.240  0.339  0.081  0.081 -99.00 -99.00
 Term Spklt - End Veg      18  25.5   5.7  15.6  11.76    0.1   53.8  0.030  0.060  0.000  0.000 -99.00 -99.00
 End Veg    - End Ear Gr   13  23.3   8.2  15.8  12.11   12.1   40.1  0.000  0.006  0.000  0.000 -99.00 -99.00
 End Ear Gr - Beg Gr Fil   15  28.1   7.0  20.4  12.46    0.1   57.8  0.091  0.142  0.000  0.000 -99.00 -99.00
 Beg Gr Fil - End Gr Fil   30  29.0   8.8  23.2  13.08   65.8  119.6  0.140  0.179  0.000  0.000 -99.00 -99.00
  
 Germinate  - End Gr Fil  138  26.7   7.4  17.2  11.97   88.1  370.9  0.152  0.215  0.037  0.037 -99.00 -99.00
--------------------------------------------------------------------------------------------------------------


*RESOURCE PRODUCTIVITY

 Growing season length: 138 days 

 Precipitation during growth season         88.1 mm[rain]
   Dry Matter Productivity                 20.26 kg[DM]/m3[rain]          =  202.6 kg[DM]/ha per mm[rain]
   Yield Productivity                       8.23 kg[grain yield]/m3[rain] =   82.3 kg[yield]/ha per mm[rain]

 Evapotranspiration during growth season   370.9 mm[ET]
   Dry Matter Productivity                  4.81 kg[DM]/m3[ET]            =   48.1 kg[DM]/ha per mm[ET]
   Yield Productivity                       1.95 kg[grain yield]/m3[ET]   =   19.5 kg[yield]/ha per mm[ET]

 Transpiration during growth season        309.1 mm[EP]
   Dry Matter Productivity                  5.78 kg[DM]/m3[EP]            =   57.8 kg[DM]/ha per mm[EP]
   Yield Productivity                       2.35 kg[grain yield]/m3[EP]   =   23.5 kg[yield]/ha per mm[EP]

 Irrigation during growing season          525.1 mm[irrig]
   Dry Matter Productivity                  3.40 kg[DM]/m3[irrig]         =   34.0 kg[DM]/ha per mm[irrig]
   Yield Productivity                       1.38 kg[grain yield]/m3[irrig]=   13.8 kg[yield]/ha per mm[irrig]

 N applied during growing season           323.0 kg[N applied]/ha
   Dry Matter Productivity                  55.3 kg[DM]/kg[N applied]
   Yield Productivity                       22.4 kg[yield]/kg[N applied]

 N uptake during growing season            218.7 kg[N uptake]/ha
   Dry Matter Productivity                  81.6 kg[DM]/kg[N uptake]
   Yield Productivity                       33.2 kg[yield]/kg[N uptake]

--------------------------------------------------------------------------------------------------------------

          WHEAT YIELD :     7250 kg/ha    [Dry weight] 

**************************************************************************************************************
  

*DSSAT Cropping System Model Ver. 4.8.2.000 -release  JUN 22, 2025 18:25:50

*RUN   7        : WW23_G-7                  CSCER048 CIOB2301    7
 MODEL          : CSCER048 - Wheat
 EXPERIMENT     : CIOB2301 WH ROOTS ANATOMY
 DATA PATH      : C:\DSSAT48\Wheat\
 TREATMENT  7   : WW23_G-7                  CSCER048


 CROP           : Wheat            CULTIVAR : ENTRY 7          ECOTYPE :CI0500
 STARTING DATE  : SEP  1 2022
 PLANTING DATE  : NOV 23 2022      PLANTS/m2 :   137.0    ROW SPACING :  20.cm
 WEATHER        : CIOB   2022
 SOIL           : CCENEB2301     TEXTURE : C     -   CIMMYT CENEB 710
 SOIL INIT COND : DEPTH:120cm EXTR. H2O: 82.8mm  NO3:484.0kg/ha  NH4:341.8kg/ha
 WATER BALANCE  : IRRIGATE ON REPORTED DATE(S)
 IRRIGATION     :      525 mm IN     9 APPLICATIONS
 NITROGEN BAL.  : SOIL-N & N-UPTAKE SIMULATION; NO N-FIXATION
 N-FERTILIZER   :      323 kg/ha IN     3 APPLICATIONS
 RESIDUE/MANURE : INITIAL :     0 kg/ha ;    2222 kg/ha IN     1 APPLICATIONS
 ENVIRONM. OPT. : DAYL=    0.00  SRAD=    0.00  TMAX=    0.00  TMIN=    0.00
                  RAIN=    0.00  CO2 =    0.00  DEW =    0.00  WIND=    0.00
 SIMULATION OPT : WATER   :Y  NITROGEN:Y  N-FIX:N  PHOSPH :N  PESTS  :N
                  PHOTO   :C  ET      :R  INFIL:S  HYDROL :R  SOM    :G
                  CO2 418ppm  NSWIT   :1  EVAP :R  SOIL   :2  STEMP  :D
 MANAGEMENT OPT : PLANTING:R  IRRIG   :R  FERT :R  RESIDUE:R  HARVEST:M
                  WEATHER :M  TILLAGE :Y

*SUMMARY OF SOIL AND GENETIC INPUT PARAMETERS

   SOIL LOWER UPPER   SAT  EXTR  INIT   ROOT   BULK     pH    NO3    NH4    ORG
  DEPTH LIMIT LIMIT    SW    SW    SW   DIST   DENS                          C
   cm   cm3/cm3    cm3/cm3    cm3/cm3         g/cm3         ugN/g  ugN/g     %
-------------------------------------------------------------------------------
  0-  5 0.143 0.204 0.268 0.061 0.172   1.00   1.35   8.50  29.00  29.00   1.08
  5- 15 0.143 0.204 0.268 0.061 0.172   1.00   1.35   8.50  29.00  29.00   1.08
 15- 30 0.143 0.204 0.268 0.061 0.172   1.00   1.35   8.50  29.00  29.00   1.08
 30- 45 0.166 0.234 0.274 0.068 0.225   0.41   1.58   8.50  27.00  16.00   0.80
 45- 60 0.166 0.234 0.274 0.068 0.225   0.41   1.58   8.50  27.00  16.00   0.80
 60- 90 0.155 0.227 0.276 0.072 0.207   0.22   1.50   7.90  53.00  33.00   0.87
 90-120 0.188 0.263 0.308 0.075 0.263   0.12   1.38   8.00   0.01   0.01   0.40

TOT-120  19.6  27.8  33.8   8.3  26.0  <--cm   -  kg/ha-->  484.0  341.8 137370
SOIL ALBEDO    : 0.13      EVAPORATION LIMIT : 6.00         MIN. FACTOR  : 1.00
RUNOFF CURVE # :61.00      DRAINAGE RATE     : 0.60         FERT. FACTOR : 1.00

 Wheat            CULTIVAR: 748117-ENTRY 7            ECOTYPE: CI0500
   P1V   P1D    P5    G1    G2    G3 PHINT
   2.0  47.2 559.6  21.3  41.8  7.27 108.1


*SIMULATED CROP AND SOIL STATUS AT MAIN DEVELOPMENT STAGES
  
 RUN NO.      7   ROOTS ANATOMY                                               

 ...... DATE ......  GROWTH STAGE BIOMASS   LEAF       CROP N      STRESS
 YEARDOY DOM MON DAP ............. kg/ha AREA NUMBER  kg/ha   %   H2O    N
 2022327  23 Nov   0 7 Sowing         0  0.00   0.0     0   0.0  0.00  0.00
 2022328  24 Nov   1 8 Germinate      0  0.00   0.0     0   0.0  0.00  0.00
 2022330  26 Nov   3 9 Emergence      0  0.00   0.0     0   0.0  0.00  0.00
 2023030  30 Jan  68 1 Term Spklt  2421  4.09  11.0   114   4.7  0.23  0.07
 2023048  17 Feb  86 2 End Veg     4458  6.69  13.5   150   3.4  0.03  0.00
 2023061   2 Mar  99 3 End Ear Gr  6991  5.68  13.5   146   2.1  0.00  0.00
 2023075  16 Mar 113 4 Beg Gr Fil 10682  4.60  13.5   145   1.4  0.09  0.00
 2023104  14 Apr 142 5 End Gr Fil 17952  1.06  13.5   187   1.0  0.19  0.00
 2023104  14 Apr 142 6 Harvest    17952  1.06  13.5   187   1.0  0.67  0.00
  

*MAIN GROWTH AND DEVELOPMENT VARIABLES

@     VARIABLE                             SIMULATED     MEASURED
      --------                             ---------     --------
      Emergence (DAP)                            3            7
      Anthesis (DAP)                           101          101
      Maturity (DAP)                           142          142
      Product wt (kg dm/ha;no loss)           6681         6650
      Product unit weight (g dm)             0.042        0.041
      Product number (no/m2)                 15983        16031
      Product number (no/group)               27.7        -99.0
      Product harvest index (ratio)           0.37         0.41
      Maximum leaf area index                  6.7          6.7
      Final leaf number (one axis)            13.5        -99.0
      Final shoot number (#/m2)                578          -99
      Canopy (tops) wt (kg dm/ha)            17952        16066
      Vegetative wt (kg dm/ha)               11271         9416
      Root wt (kg dm/ha)                      1072          -99
      Assimilate wt (kg dm/ha)               20124          -99
      Senesced wt (kg dm/ha)                   382          -99
      Reserves wt (kg dm/ha)                  5525          -99
      N uptake (kg/ha)                       209.8        -99.0
      N senesced (kg/ha)                       5.3        -99.0
      Above-ground N (kg/ha)                 187.3        -99.0
      Root N (kg/ha)                          18.0        -99.0
      Vegetative N (kg/ha)                    44.2        -99.0
      Product N (kg/ha)                      143.0        123.9
      Product N harvest index (ratio)         0.76       -99.00
      Product N (%)                            2.1          1.9
      Vegetative N (%)                         0.4        -99.0
      Leaf+stem wt,anthesis (kg dm/ha)        7527          -99
      Leaf+stem N,anthesis (kg/ha)           145.7        -99.0
      Leaf N,anthesis (%)                      3.1        -99.0

*ENVIRONMENTAL AND STRESS FACTORS

 |-----Development Phase------|-------------Environment--------------|----------------Stress-----------------|
                              |--------Average-------|---Cumulative--|         (0=Min, 1=Max Stress)         |
                         Time  Temp  Temp Solar Photop         Evapo |----Water---|--Nitrogen--|--Phosphorus-|
                         Span   Max   Min   Rad  [day]   Rain  Trans  Photo         Photo         Photo
                         days    °C    °C MJ/m2     hr     mm     mm  synth Growth ' synth Growth  synth Growth
--------------------------------------------------------------------------------------------------------------
 Germinate  - Term Spklt   65  26.2   7.0  14.4  11.37   10.0  111.0  0.234  0.329  0.073  0.073 -99.00 -99.00
 Term Spklt - End Veg      18  25.1   5.7  15.7  11.83    3.6   54.0  0.027  0.055  0.000  0.000 -99.00 -99.00
 End Veg    - End Ear Gr   13  23.4   8.5  15.6  12.18    8.7   39.6  0.000  0.000  0.000  0.000 -99.00 -99.00
 End Ear Gr - Beg Gr Fil   14  29.5   7.7  21.3  12.53    0.0   57.6  0.090  0.145  0.000  0.000 -99.00 -99.00
 Beg Gr Fil - End Gr Fil   29  29.0   8.8  23.5  13.12   65.8  113.0  0.186  0.225  0.000  0.000 -99.00 -99.00
  
 Germinate  - End Gr Fil  139  26.7   7.4  17.3  11.99   88.1  375.3  0.161  0.223  0.034  0.034 -99.00 -99.00
--------------------------------------------------------------------------------------------------------------


*RESOURCE PRODUCTIVITY

 Growing season length: 139 days 

 Precipitation during growth season         88.1 mm[rain]
   Dry Matter Productivity                 20.38 kg[DM]/m3[rain]          =  203.8 kg[DM]/ha per mm[rain]
   Yield Productivity                       7.58 kg[grain yield]/m3[rain] =   75.8 kg[yield]/ha per mm[rain]

 Evapotranspiration during growth season   375.3 mm[ET]
   Dry Matter Productivity                  4.78 kg[DM]/m3[ET]            =   47.8 kg[DM]/ha per mm[ET]
   Yield Productivity                       1.78 kg[grain yield]/m3[ET]   =   17.8 kg[yield]/ha per mm[ET]

 Transpiration during growth season        319.2 mm[EP]
   Dry Matter Productivity                  5.62 kg[DM]/m3[EP]            =   56.2 kg[DM]/ha per mm[EP]
   Yield Productivity                       2.09 kg[grain yield]/m3[EP]   =   20.9 kg[yield]/ha per mm[EP]

 Irrigation during growing season          525.1 mm[irrig]
   Dry Matter Productivity                  3.42 kg[DM]/m3[irrig]         =   34.2 kg[DM]/ha per mm[irrig]
   Yield Productivity                       1.27 kg[grain yield]/m3[irrig]=   12.7 kg[yield]/ha per mm[irrig]

 N applied during growing season           323.0 kg[N applied]/ha
   Dry Matter Productivity                  55.6 kg[DM]/kg[N applied]
   Yield Productivity                       20.7 kg[yield]/kg[N applied]

 N uptake during growing season            209.8 kg[N uptake]/ha
   Dry Matter Productivity                  85.6 kg[DM]/kg[N uptake]
   Yield Productivity                       31.8 kg[yield]/kg[N uptake]

--------------------------------------------------------------------------------------------------------------

          WHEAT YIELD :     6681 kg/ha    [Dry weight] 

**************************************************************************************************************
  

*DSSAT Cropping System Model Ver. 4.8.2.000 -release  JUN 22, 2025 18:25:50

*RUN   8        : WW23_G-8                  CSCER048 CIOB2301    8
 MODEL          : CSCER048 - Wheat
 EXPERIMENT     : CIOB2301 WH ROOTS ANATOMY
 DATA PATH      : C:\DSSAT48\Wheat\
 TREATMENT  8   : WW23_G-8                  CSCER048


 CROP           : Wheat            CULTIVAR : ENTRY 8          ECOTYPE :CI0501
 STARTING DATE  : SEP  1 2022
 PLANTING DATE  : NOV 23 2022      PLANTS/m2 :   137.0    ROW SPACING :  20.cm
 WEATHER        : CIOB   2022
 SOIL           : CCENEB2301     TEXTURE : C     -   CIMMYT CENEB 710
 SOIL INIT COND : DEPTH:120cm EXTR. H2O: 82.8mm  NO3:484.0kg/ha  NH4:341.8kg/ha
 WATER BALANCE  : IRRIGATE ON REPORTED DATE(S)
 IRRIGATION     :      525 mm IN     9 APPLICATIONS
 NITROGEN BAL.  : SOIL-N & N-UPTAKE SIMULATION; NO N-FIXATION
 N-FERTILIZER   :      323 kg/ha IN     3 APPLICATIONS
 RESIDUE/MANURE : INITIAL :     0 kg/ha ;    2222 kg/ha IN     1 APPLICATIONS
 ENVIRONM. OPT. : DAYL=    0.00  SRAD=    0.00  TMAX=    0.00  TMIN=    0.00
                  RAIN=    0.00  CO2 =    0.00  DEW =    0.00  WIND=    0.00
 SIMULATION OPT : WATER   :Y  NITROGEN:Y  N-FIX:N  PHOSPH :N  PESTS  :N
                  PHOTO   :C  ET      :R  INFIL:S  HYDROL :R  SOM    :G
                  CO2 418ppm  NSWIT   :1  EVAP :R  SOIL   :2  STEMP  :D
 MANAGEMENT OPT : PLANTING:R  IRRIG   :R  FERT :R  RESIDUE:R  HARVEST:M
                  WEATHER :M  TILLAGE :Y

*SUMMARY OF SOIL AND GENETIC INPUT PARAMETERS

   SOIL LOWER UPPER   SAT  EXTR  INIT   ROOT   BULK     pH    NO3    NH4    ORG
  DEPTH LIMIT LIMIT    SW    SW    SW   DIST   DENS                          C
   cm   cm3/cm3    cm3/cm3    cm3/cm3         g/cm3         ugN/g  ugN/g     %
-------------------------------------------------------------------------------
  0-  5 0.143 0.204 0.268 0.061 0.172   1.00   1.35   8.50  29.00  29.00   1.08
  5- 15 0.143 0.204 0.268 0.061 0.172   1.00   1.35   8.50  29.00  29.00   1.08
 15- 30 0.143 0.204 0.268 0.061 0.172   1.00   1.35   8.50  29.00  29.00   1.08
 30- 45 0.166 0.234 0.274 0.068 0.225   0.41   1.58   8.50  27.00  16.00   0.80
 45- 60 0.166 0.234 0.274 0.068 0.225   0.41   1.58   8.50  27.00  16.00   0.80
 60- 90 0.155 0.227 0.276 0.072 0.207   0.22   1.50   7.90  53.00  33.00   0.87
 90-120 0.188 0.263 0.308 0.075 0.263   0.12   1.38   8.00   0.01   0.01   0.40

TOT-120  19.6  27.8  33.8   8.3  26.0  <--cm   -  kg/ha-->  484.0  341.8 137370
SOIL ALBEDO    : 0.13      EVAPORATION LIMIT : 6.00         MIN. FACTOR  : 1.00
RUNOFF CURVE # :61.00      DRAINAGE RATE     : 0.60         FERT. FACTOR : 1.00

 Wheat            CULTIVAR: 748118-ENTRY 8            ECOTYPE: CI0501
   P1V   P1D    P5    G1    G2    G3 PHINT
   2.0  53.4 621.0  21.9  40.9  0.50  90.7


*SIMULATED CROP AND SOIL STATUS AT MAIN DEVELOPMENT STAGES
  
 RUN NO.      8   ROOTS ANATOMY                                               

 ...... DATE ......  GROWTH STAGE BIOMASS   LEAF       CROP N      STRESS
 YEARDOY DOM MON DAP ............. kg/ha AREA NUMBER  kg/ha   %   H2O    N
 2022327  23 Nov   0 7 Sowing         0  0.00   0.0     0   0.0  0.00  0.00
 2022328  24 Nov   1 8 Germinate      0  0.00   0.0     0   0.0  0.00  0.00
 2022330  26 Nov   3 9 Emergence      0  0.00   0.0     0   0.0  0.00  0.00
 2023031  31 Jan  69 1 Term Spklt  2049  3.23  13.1    96   4.7  0.17  0.09
 2023049  18 Feb  87 2 End Veg     4110  5.72  16.1   138   3.4  0.03  0.00
 2023062   3 Mar 100 3 End Ear Gr  6746  5.06  16.1   134   2.0  0.00  0.00
 2023076  17 Mar 114 4 Beg Gr Fil 10162  4.44  16.1   133   1.3  0.10  0.00
 2023108  18 Apr 146 5 End Gr Fil 17600  0.50  16.1   172   1.0  0.24  0.00
 2023108  18 Apr 146 6 Harvest    17600  0.50  16.1   172   1.0  0.49  0.00
  

*MAIN GROWTH AND DEVELOPMENT VARIABLES

@     VARIABLE                             SIMULATED     MEASURED
      --------                             ---------     --------
      Emergence (DAP)                            3            7
      Anthesis (DAP)                           103          104
      Maturity (DAP)                           146          146
      Product wt (kg dm/ha;no loss)           6341         6393
      Product unit weight (g dm)             0.041        0.041
      Product number (no/m2)                 15504        15446
      Product number (no/group)                5.7        -99.0
      Product harvest index (ratio)           0.36         0.31
      Maximum leaf area index                  5.7          5.7
      Final leaf number (one axis)            16.1        -99.0
      Final shoot number (#/m2)               2705          -99
      Canopy (tops) wt (kg dm/ha)            17600        20909
      Vegetative wt (kg dm/ha)               11258        14516
      Root wt (kg dm/ha)                      1007          -99
      Assimilate wt (kg dm/ha)               19653          -99
      Senesced wt (kg dm/ha)                   373          -99
      Reserves wt (kg dm/ha)                  5877          -99
      N uptake (kg/ha)                       193.0        -99.0
      N senesced (kg/ha)                       5.2        -99.0
      Above-ground N (kg/ha)                 171.7        -99.0
      Root N (kg/ha)                          16.9        -99.0
      Vegetative N (kg/ha)                    38.2        -99.0
      Product N (kg/ha)                      133.6        141.9
      Product N harvest index (ratio)         0.78       -99.00
      Product N (%)                            2.1          2.2
      Vegetative N (%)                         0.3        -99.0
      Leaf+stem wt,anthesis (kg dm/ha)        7302          -99
      Leaf+stem N,anthesis (kg/ha)           133.8        -99.0
      Leaf N,anthesis (%)                      3.0        -99.0

*ENVIRONMENTAL AND STRESS FACTORS

 |-----Development Phase------|-------------Environment--------------|----------------Stress-----------------|
                              |--------Average-------|---Cumulative--|         (0=Min, 1=Max Stress)         |
                         Time  Temp  Temp Solar Photop         Evapo |----Water---|--Nitrogen--|--Phosphorus-|
                         Span   Max   Min   Rad  [day]   Rain  Trans  Photo         Photo         Photo
                         days    °C    °C MJ/m2     hr     mm     mm  synth Growth ' synth Growth  synth Growth
--------------------------------------------------------------------------------------------------------------
 Germinate  - Term Spklt   66  26.1   7.0  14.4  11.37   10.0  103.8  0.173  0.262  0.092  0.092 -99.00 -99.00
 Term Spklt - End Veg      18  25.1   6.1  15.5  11.85   11.8   52.1  0.027  0.061  0.000  0.000 -99.00 -99.00
 End Veg    - End Ear Gr   13  23.5   8.1  16.3  12.20    0.5   41.4  0.000  0.014  0.000  0.000 -99.00 -99.00
 End Ear Gr - Beg Gr Fil   14  29.5   8.4  20.3  12.55   13.7   54.7  0.097  0.141  0.000  0.000 -99.00 -99.00
 Beg Gr Fil - End Gr Fil   32  29.3   8.8  24.2  13.19   52.1  114.5  0.239  0.285  0.000  0.000 -99.00 -99.00
  
 Germinate  - End Gr Fil  143  26.8   7.5  17.5  12.03   88.1  366.5  0.146  0.208  0.042  0.042 -99.00 -99.00
--------------------------------------------------------------------------------------------------------------


*RESOURCE PRODUCTIVITY

 Growing season length: 143 days 

 Precipitation during growth season         88.1 mm[rain]
   Dry Matter Productivity                 19.98 kg[DM]/m3[rain]          =  199.8 kg[DM]/ha per mm[rain]
   Yield Productivity                       7.20 kg[grain yield]/m3[rain] =   72.0 kg[yield]/ha per mm[rain]

 Evapotranspiration during growth season   366.5 mm[ET]
   Dry Matter Productivity                  4.80 kg[DM]/m3[ET]            =   48.0 kg[DM]/ha per mm[ET]
   Yield Productivity                       1.73 kg[grain yield]/m3[ET]   =   17.3 kg[yield]/ha per mm[ET]

 Transpiration during growth season        291.4 mm[EP]
   Dry Matter Productivity                  6.04 kg[DM]/m3[EP]            =   60.4 kg[DM]/ha per mm[EP]
   Yield Productivity                       2.18 kg[grain yield]/m3[EP]   =   21.8 kg[yield]/ha per mm[EP]

 Irrigation during growing season          525.1 mm[irrig]
   Dry Matter Productivity                  3.35 kg[DM]/m3[irrig]         =   33.5 kg[DM]/ha per mm[irrig]
   Yield Productivity                       1.21 kg[grain yield]/m3[irrig]=   12.1 kg[yield]/ha per mm[irrig]

 N applied during growing season           323.0 kg[N applied]/ha
   Dry Matter Productivity                  54.5 kg[DM]/kg[N applied]
   Yield Productivity                       19.6 kg[yield]/kg[N applied]

 N uptake during growing season            193.0 kg[N uptake]/ha
   Dry Matter Productivity                  91.2 kg[DM]/kg[N uptake]
   Yield Productivity                       32.9 kg[yield]/kg[N uptake]

--------------------------------------------------------------------------------------------------------------

          WHEAT YIELD :     6341 kg/ha    [Dry weight] 

**************************************************************************************************************
  

*DSSAT Cropping System Model Ver. 4.8.2.000 -release  JUN 22, 2025 18:25:51

*RUN   9        : WW23_G-9                  CSCER048 CIOB2301    9
 MODEL          : CSCER048 - Wheat
 EXPERIMENT     : CIOB2301 WH ROOTS ANATOMY
 DATA PATH      : C:\DSSAT48\Wheat\
 TREATMENT  9   : WW23_G-9                  CSCER048


 CROP           : Wheat            CULTIVAR : ENTRY 9          ECOTYPE :CI0500
 STARTING DATE  : SEP  1 2022
 PLANTING DATE  : NOV 23 2022      PLANTS/m2 :   137.0    ROW SPACING :  20.cm
 WEATHER        : CIOB   2022
 SOIL           : CCENEB2301     TEXTURE : C     -   CIMMYT CENEB 710
 SOIL INIT COND : DEPTH:120cm EXTR. H2O: 82.8mm  NO3:484.0kg/ha  NH4:341.8kg/ha
 WATER BALANCE  : IRRIGATE ON REPORTED DATE(S)
 IRRIGATION     :      525 mm IN     9 APPLICATIONS
 NITROGEN BAL.  : SOIL-N & N-UPTAKE SIMULATION; NO N-FIXATION
 N-FERTILIZER   :      323 kg/ha IN     3 APPLICATIONS
 RESIDUE/MANURE : INITIAL :     0 kg/ha ;    2222 kg/ha IN     1 APPLICATIONS
 ENVIRONM. OPT. : DAYL=    0.00  SRAD=    0.00  TMAX=    0.00  TMIN=    0.00
                  RAIN=    0.00  CO2 =    0.00  DEW =    0.00  WIND=    0.00
 SIMULATION OPT : WATER   :Y  NITROGEN:Y  N-FIX:N  PHOSPH :N  PESTS  :N
                  PHOTO   :C  ET      :R  INFIL:S  HYDROL :R  SOM    :G
                  CO2 418ppm  NSWIT   :1  EVAP :R  SOIL   :2  STEMP  :D
 MANAGEMENT OPT : PLANTING:R  IRRIG   :R  FERT :R  RESIDUE:R  HARVEST:M
                  WEATHER :M  TILLAGE :Y

*SUMMARY OF SOIL AND GENETIC INPUT PARAMETERS

   SOIL LOWER UPPER   SAT  EXTR  INIT   ROOT   BULK     pH    NO3    NH4    ORG
  DEPTH LIMIT LIMIT    SW    SW    SW   DIST   DENS                          C
   cm   cm3/cm3    cm3/cm3    cm3/cm3         g/cm3         ugN/g  ugN/g     %
-------------------------------------------------------------------------------
  0-  5 0.143 0.204 0.268 0.061 0.172   1.00   1.35   8.50  29.00  29.00   1.08
  5- 15 0.143 0.204 0.268 0.061 0.172   1.00   1.35   8.50  29.00  29.00   1.08
 15- 30 0.143 0.204 0.268 0.061 0.172   1.00   1.35   8.50  29.00  29.00   1.08
 30- 45 0.166 0.234 0.274 0.068 0.225   0.41   1.58   8.50  27.00  16.00   0.80
 45- 60 0.166 0.234 0.274 0.068 0.225   0.41   1.58   8.50  27.00  16.00   0.80
 60- 90 0.155 0.227 0.276 0.072 0.207   0.22   1.50   7.90  53.00  33.00   0.87
 90-120 0.188 0.263 0.308 0.075 0.263   0.12   1.38   8.00   0.01   0.01   0.40

TOT-120  19.6  27.8  33.8   8.3  26.0  <--cm   -  kg/ha-->  484.0  341.8 137370
SOIL ALBEDO    : 0.13      EVAPORATION LIMIT : 6.00         MIN. FACTOR  : 1.00
RUNOFF CURVE # :61.00      DRAINAGE RATE     : 0.60         FERT. FACTOR : 1.00

 Wheat            CULTIVAR: 474804-ENTRY 9            ECOTYPE: CI0500
   P1V   P1D    P5    G1    G2    G3 PHINT
   2.0  45.5 638.6  21.6  41.0  2.68  89.7


*SIMULATED CROP AND SOIL STATUS AT MAIN DEVELOPMENT STAGES
  
 RUN NO.      9   ROOTS ANATOMY                                               

 ...... DATE ......  GROWTH STAGE BIOMASS   LEAF       CROP N      STRESS
 YEARDOY DOM MON DAP ............. kg/ha AREA NUMBER  kg/ha   %   H2O    N
 2022327  23 Nov   0 7 Sowing         0  0.00   0.0     0   0.0  0.00  0.00
 2022328  24 Nov   1 8 Germinate      0  0.00   0.0     0   0.0  0.00  0.00
 2022330  26 Nov   3 9 Emergence      0  0.00   0.0     0   0.0  0.00  0.00
 2023029  29 Jan  67 1 Term Spklt  2093  3.28  12.9    97   4.6  0.23  0.08
 2023047  16 Feb  85 2 End Veg     4127  5.80  16.0   137   3.3  0.03  0.00
 2023060   1 Mar  98 3 End Ear Gr  6545  4.95  16.0   134   2.0  0.00  0.00
 2023074  15 Mar 112 4 Beg Gr Fil 10216  4.08  16.0   133   1.3  0.09  0.00
 2023108  18 Apr 146 5 End Gr Fil 17925  0.77  16.0   178   1.0  0.25  0.00
 2023108  18 Apr 146 6 Harvest    17925  0.77  16.0   178   1.0  0.66  0.00
  

*MAIN GROWTH AND DEVELOPMENT VARIABLES

@     VARIABLE                             SIMULATED     MEASURED
      --------                             ---------     --------
      Emergence (DAP)                            3            7
      Anthesis (DAP)                           101          101
      Maturity (DAP)                           146          145
      Product wt (kg dm/ha;no loss)           6337         6560
      Product unit weight (g dm)             0.041        0.043
      Product number (no/m2)                 15456        15412
      Product number (no/group)               17.0        -99.0
      Product harvest index (ratio)           0.35         0.33
      Maximum leaf area index                  5.8          5.8
      Final leaf number (one axis)            16.0        -99.0
      Final shoot number (#/m2)                910          -99
      Canopy (tops) wt (kg dm/ha)            17925        20154
      Vegetative wt (kg dm/ha)               11588        13594
      Root wt (kg dm/ha)                      1023          -99
      Assimilate wt (kg dm/ha)               20059          -99
      Senesced wt (kg dm/ha)                   424          -99
      Reserves wt (kg dm/ha)                  6227          -99
      N uptake (kg/ha)                       200.1        -99.0
      N senesced (kg/ha)                       5.9        -99.0
      Above-ground N (kg/ha)                 178.1        -99.0
      Root N (kg/ha)                          17.0        -99.0
      Vegetative N (kg/ha)                    39.4        -99.0
      Product N (kg/ha)                      138.6        131.8
      Product N harvest index (ratio)         0.78       -99.00
      Product N (%)                            2.2          2.0
      Vegetative N (%)                         0.3        -99.0
[...]
   Dry Matter Productivity                  4.64 kg[DM]/m3[rain]          =   46.4 kg[DM]/ha per mm[rain]
   Yield Productivity                       1.52 kg[grain yield]/m3[rain] =   15.2 kg[yield]/ha per mm[rain]

 Evapotranspiration during growth season   111.1 mm[ET]
   Dry Matter Productivity                  3.68 kg[DM]/m3[ET]            =   36.8 kg[DM]/ha per mm[ET]
   Yield Productivity                       1.20 kg[grain yield]/m3[ET]   =   12.0 kg[yield]/ha per mm[ET]

 Transpiration during growth season         75.3 mm[EP]
   Dry Matter Productivity                  5.42 kg[DM]/m3[EP]            =   54.2 kg[DM]/ha per mm[EP]
   Yield Productivity                       1.77 kg[grain yield]/m3[EP]   =   17.7 kg[yield]/ha per mm[EP]

 Irrigation during growing season          120.0 mm[irrig]
   Dry Matter Productivity                  3.40 kg[DM]/m3[irrig]         =   34.0 kg[DM]/ha per mm[irrig]
   Yield Productivity                       1.11 kg[grain yield]/m3[irrig]=   11.1 kg[yield]/ha per mm[irrig]

 N applied during growing season           173.0 kg[N applied]/ha
   Dry Matter Productivity                  23.6 kg[DM]/kg[N applied]
   Yield Productivity                        7.7 kg[yield]/kg[N applied]

 N uptake during growing season             45.4 kg[N uptake]/ha
   Dry Matter Productivity                  90.1 kg[DM]/kg[N uptake]
   Yield Productivity                       29.5 kg[yield]/kg[N uptake]

--------------------------------------------------------------------------------------------------------------

          WHEAT YIELD :     1337 kg/ha    [Dry weight] 

**************************************************************************************************************
  

*DSSAT Cropping System Model Ver. 4.8.2.000 -release  JUN 22, 2025 18:25:54

*RUN  69        : DR23_G-13                 CSCER048 CIOB2302   13
 MODEL          : CSCER048 - Wheat
 EXPERIMENT     : CIOB2302 WH ROOTS ANATOMY DROUGHT
 DATA PATH      : C:\DSSAT48\Wheat\
 TREATMENT 13   : DR23_G-13                 CSCER048


 CROP           : Wheat            CULTIVAR : ENTRY 13         ECOTYPE :CI0503
 STARTING DATE  : SEP  1 2022
 PLANTING DATE  : DEC  3 2022      PLANTS/m2 :   150.0    ROW SPACING :  36.cm
 WEATHER        : CIOB   2022
 SOIL           : CCENEB2301     TEXTURE : C     -   CIMMYT CENEB 710
 SOIL INIT COND : DEPTH:120cm EXTR. H2O: 82.8mm  NO3:252.3kg/ha  NH4:205.5kg/ha
 WATER BALANCE  : IRRIGATE ON REPORTED DATE(S)
 IRRIGATION     :      120 mm IN     1 APPLICATIONS
 NITROGEN BAL.  : SOIL-N & N-UPTAKE SIMULATION; NO N-FIXATION
 N-FERTILIZER   :      173 kg/ha IN     2 APPLICATIONS
 RESIDUE/MANURE : INITIAL :     0 kg/ha ;    2222 kg/ha IN     1 APPLICATIONS
 ENVIRONM. OPT. : DAYL=    0.00  SRAD=    0.00  TMAX=    0.00  TMIN=    0.00
                  RAIN=    0.00  CO2 =    0.00  DEW =    0.00  WIND=    0.00
 SIMULATION OPT : WATER   :Y  NITROGEN:Y  N-FIX:N  PHOSPH :N  PESTS  :N
                  PHOTO   :C  ET      :R  INFIL:S  HYDROL :R  SOM    :G
                  CO2 418ppm  NSWIT   :1  EVAP :R  SOIL   :2  STEMP  :D
 MANAGEMENT OPT : PLANTING:R  IRRIG   :R  FERT :R  RESIDUE:R  HARVEST:M
                  WEATHER :M  TILLAGE :Y

*SUMMARY OF SOIL AND GENETIC INPUT PARAMETERS

   SOIL LOWER UPPER   SAT  EXTR  INIT   ROOT   BULK     pH    NO3    NH4    ORG
  DEPTH LIMIT LIMIT    SW    SW    SW   DIST   DENS                          C
   cm   cm3/cm3    cm3/cm3    cm3/cm3         g/cm3         ugN/g  ugN/g     %
-------------------------------------------------------------------------------
  0-  5 0.143 0.204 0.268 0.061 0.204   1.00   1.35   8.80  19.00  12.00   1.10
  5- 15 0.143 0.204 0.268 0.061 0.204   1.00   1.35   8.80  19.00  12.00   1.10
 15- 30 0.143 0.204 0.268 0.061 0.204   1.00   1.35   8.80  19.00  12.00   1.10
 30- 45 0.166 0.234 0.274 0.068 0.230   0.41   1.58   8.50  18.00  16.00   0.40
 45- 60 0.166 0.234 0.274 0.068 0.230   0.41   1.58   8.50  18.00  16.00   0.40
 60- 90 0.155 0.227 0.276 0.072 0.230   0.22   1.50   8.50  20.00  18.00   0.40
 90-120 0.188 0.263 0.308 0.075 0.263   0.12   1.38   8.00   0.01   0.01   0.40

TOT-120  19.6  27.8  33.8   8.3  27.8  <--cm   -  kg/ha-->  252.3  205.5  98070
SOIL ALBEDO    : 0.13      EVAPORATION LIMIT : 6.00         MIN. FACTOR  : 1.00
RUNOFF CURVE # :61.00      DRAINAGE RATE     : 0.60         FERT. FACTOR : 1.00

 Wheat            CULTIVAR: 542933-ENTRY 13           ECOTYPE: CI0503
   P1V   P1D    P5    G1    G2    G3 PHINT
   2.0  44.1 554.3  18.7  53.2  6.35 106.3


*SIMULATED CROP AND SOIL STATUS AT MAIN DEVELOPMENT STAGES
  
 RUN NO.     69   ROOTS ANATOMY DROUGHT                                       

 ...... DATE ......  GROWTH STAGE BIOMASS   LEAF       CROP N      STRESS
 YEARDOY DOM MON DAP ............. kg/ha AREA NUMBER  kg/ha   %   H2O    N
 2022337   3 Dec   0 7 Sowing         0  0.00   0.0     0   0.0  0.00  0.00
 2022338   4 Dec   1 8 Germinate      0  0.00   0.0     0   0.0  0.00  0.00
 2022339   5 Dec   2 9 Emergence      0  0.00   0.0     0   0.0  0.00  0.00
 2023031  31 Jan  59 1 Term Spklt   619  1.03   9.6    28   4.5  0.54  0.09
 2023049  18 Feb  77 2 End Veg      920  1.31  12.2    29   3.2  0.67  0.00
 2023062   3 Mar  90 3 End Ear Gr  1412  0.89  12.2    28   2.0  0.59  0.00
 2023076  17 Mar 104 4 Beg Gr Fil  1793  0.58  12.2    28   1.6  0.74  0.00
 2023105  15 Apr 133 5 End Gr Fil  4062  0.09  12.2    39   1.0  0.16  0.00
 2023105  15 Apr 133 6 Harvest     4062  0.09  12.2    39   1.0  0.00  0.00
  

*MAIN GROWTH AND DEVELOPMENT VARIABLES

@     VARIABLE                             SIMULATED     MEASURED
      --------                             ---------     --------
      Emergence (DAP)                            2            6
      Anthesis (DAP)                            92           86
      Maturity (DAP)                           133          118
      Product wt (kg dm/ha;no loss)           1401         3437
      Product unit weight (g dm)             0.053        0.039
      Product number (no/m2)                  2633         8856
      Product number (no/group)                8.3        -99.0
      Product harvest index (ratio)           0.34         0.41
      Maximum leaf area index                  1.3          4.6
      Final leaf number (one axis)            12.2        -99.0
      Final shoot number (#/m2)                317          -99
      Canopy (tops) wt (kg dm/ha)             4062         8377
      Vegetative wt (kg dm/ha)                2661         4940
      Root wt (kg dm/ha)                       339          -99
      Assimilate wt (kg dm/ha)                4852          -99
      Senesced wt (kg dm/ha)                   277          -99
      Reserves wt (kg dm/ha)                  1659          -99
      N uptake (kg/ha)                        46.7        -99.0
      N senesced (kg/ha)                       3.8        -99.0
      Above-ground N (kg/ha)                  38.7        -99.0
      Root N (kg/ha)                           5.7        -99.0
      Vegetative N (kg/ha)                     7.3        -99.0
      Product N (kg/ha)                       31.3         68.3
      Product N harvest index (ratio)         0.81       -99.00
      Product N (%)                            2.2          2.0
      Vegetative N (%)                         0.3        -99.0
      Leaf+stem wt,anthesis (kg dm/ha)        1474          -99
      Leaf+stem N,anthesis (kg/ha)            28.3        -99.0
      Leaf N,anthesis (%)                      3.1        -99.0

*ENVIRONMENTAL AND STRESS FACTORS

 |-----Development Phase------|-------------Environment--------------|----------------Stress-----------------|
                              |--------Average-------|---Cumulative--|         (0=Min, 1=Max Stress)         |
                         Time  Temp  Temp Solar Photop         Evapo |----Water---|--Nitrogen--|--Phosphorus-|
                         Span   Max   Min   Rad  [day]   Rain  Trans  Photo         Photo         Photo
                         days    °C    °C MJ/m2     hr     mm     mm  synth Growth ' synth Growth  synth Growth
--------------------------------------------------------------------------------------------------------------
 Germinate  - Term Spklt   57  25.6   6.5  14.5  11.37   10.0   33.5  0.542  0.632  0.092  0.092 -99.00 -99.00
 Term Spklt - End Veg      18  25.1   6.1  15.5  11.85   11.8   13.8  0.665  0.742  0.000  0.000 -99.00 -99.00
 End Veg    - End Ear Gr   13  23.5   8.1  16.3  12.20    0.5   14.0  0.586  0.682  0.000  0.000 -99.00 -99.00
 End Ear Gr - Beg Gr Fil   14  29.5   8.4  20.3  12.55   13.7    6.4  0.739  0.799  0.000  0.000 -99.00 -99.00
 Beg Gr Fil - End Gr Fil   29  29.2   8.6  24.1  13.15   52.1   42.9  0.164  0.267  0.000  0.000 -99.00 -99.00
  
 Germinate  - End Gr Fil  131  26.5   7.3  17.5  12.04   88.1  110.7  0.500  0.589  0.040  0.040 -99.00 -99.00
--------------------------------------------------------------------------------------------------------------


*RESOURCE PRODUCTIVITY

 Growing season length: 131 days 

 Precipitation during growth season         88.1 mm[rain]
   Dry Matter Productivity                  4.61 kg[DM]/m3[rain]          =   46.1 kg[DM]/ha per mm[rain]
   Yield Productivity                       1.59 kg[grain yield]/m3[rain] =   15.9 kg[yield]/ha per mm[rain]

 Evapotranspiration during growth season   110.7 mm[ET]
   Dry Matter Productivity                  3.67 kg[DM]/m3[ET]            =   36.7 kg[DM]/ha per mm[ET]
   Yield Productivity                       1.27 kg[grain yield]/m3[ET]   =   12.7 kg[yield]/ha per mm[ET]

 Transpiration during growth season         75.0 mm[EP]
   Dry Matter Productivity                  5.42 kg[DM]/m3[EP]            =   54.2 kg[DM]/ha per mm[EP]
   Yield Productivity                       1.87 kg[grain yield]/m3[EP]   =   18.7 kg[yield]/ha per mm[EP]

 Irrigation during growing season          120.0 mm[irrig]
   Dry Matter Productivity                  3.38 kg[DM]/m3[irrig]         =   33.8 kg[DM]/ha per mm[irrig]
   Yield Productivity                       1.17 kg[grain yield]/m3[irrig]=   11.7 kg[yield]/ha per mm[irrig]

 N applied during growing season           173.0 kg[N applied]/ha
   Dry Matter Productivity                  23.5 kg[DM]/kg[N applied]
   Yield Productivity                        8.1 kg[yield]/kg[N applied]

 N uptake during growing season             46.7 kg[N uptake]/ha
   Dry Matter Productivity                  86.9 kg[DM]/kg[N uptake]
   Yield Productivity                       30.0 kg[yield]/kg[N uptake]

--------------------------------------------------------------------------------------------------------------

          WHEAT YIELD :     1401 kg/ha    [Dry weight] 

**************************************************************************************************************
  

*DSSAT Cropping System Model Ver. 4.8.2.000 -release  JUN 22, 2025 18:25:54

*RUN  70        : DR23_G-14                 CSCER048 CIOB2302   14
 MODEL          : CSCER048 - Wheat
 EXPERIMENT     : CIOB2302 WH ROOTS ANATOMY DROUGHT
 DATA PATH      : C:\DSSAT48\Wheat\
 TREATMENT 14   : DR23_G-14                 CSCER048


 CROP           : Wheat            CULTIVAR : ENTRY 14         ECOTYPE :CI0501
 STARTING DATE  : SEP  1 2022
 PLANTING DATE  : DEC  3 2022      PLANTS/m2 :   150.0    ROW SPACING :  36.cm
 WEATHER        : CIOB   2022
 SOIL           : CCENEB2301     TEXTURE : C     -   CIMMYT CENEB 710
 SOIL INIT COND : DEPTH:120cm EXTR. H2O: 82.8mm  NO3:252.3kg/ha  NH4:205.5kg/ha
 WATER BALANCE  : IRRIGATE ON REPORTED DATE(S)
 IRRIGATION     :      120 mm IN     1 APPLICATIONS
 NITROGEN BAL.  : SOIL-N & N-UPTAKE SIMULATION; NO N-FIXATION
 N-FERTILIZER   :      173 kg/ha IN     2 APPLICATIONS
 RESIDUE/MANURE : INITIAL :     0 kg/ha ;    2222 kg/ha IN     1 APPLICATIONS
 ENVIRONM. OPT. : DAYL=    0.00  SRAD=    0.00  TMAX=    0.00  TMIN=    0.00
                  RAIN=    0.00  CO2 =    0.00  DEW =    0.00  WIND=    0.00
 SIMULATION OPT : WATER   :Y  NITROGEN:Y  N-FIX:N  PHOSPH :N  PESTS  :N
                  PHOTO   :C  ET      :R  INFIL:S  HYDROL :R  SOM    :G
                  CO2 418ppm  NSWIT   :1  EVAP :R  SOIL   :2  STEMP  :D
 MANAGEMENT OPT : PLANTING:R  IRRIG   :R  FERT :R  RESIDUE:R  HARVEST:M
                  WEATHER :M  TILLAGE :Y

*SUMMARY OF SOIL AND GENETIC INPUT PARAMETERS

   SOIL LOWER UPPER   SAT  EXTR  INIT   ROOT   BULK     pH    NO3    NH4    ORG
  DEPTH LIMIT LIMIT    SW    SW    SW   DIST   DENS                          C
   cm   cm3/cm3    cm3/cm3    cm3/cm3         g/cm3         ugN/g  ugN/g     %
-------------------------------------------------------------------------------
  0-  5 0.143 0.204 0.268 0.061 0.204   1.00   1.35   8.80  19.00  12.00   1.10
  5- 15 0.143 0.204 0.268 0.061 0.204   1.00   1.35   8.80  19.00  12.00   1.10
 15- 30 0.143 0.204 0.268 0.061 0.204   1.00   1.35   8.80  19.00  12.00   1.10
 30- 45 0.166 0.234 0.274 0.068 0.230   0.41   1.58   8.50  18.00  16.00   0.40
 45- 60 0.166 0.234 0.274 0.068 0.230   0.41   1.58   8.50  18.00  16.00   0.40
 60- 90 0.155 0.227 0.276 0.072 0.230   0.22   1.50   8.50  20.00  18.00   0.40
 90-120 0.188 0.263 0.308 0.075 0.263   0.12   1.38   8.00   0.01   0.01   0.40

TOT-120  19.6  27.8  33.8   8.3  27.8  <--cm   -  kg/ha-->  252.3  205.5  98070
SOIL ALBEDO    : 0.13      EVAPORATION LIMIT : 6.00         MIN. FACTOR  : 1.00
RUNOFF CURVE # :61.00      DRAINAGE RATE     : 0.60         FERT. FACTOR : 1.00

 Wheat            CULTIVAR: 589328-ENTRY 14           ECOTYPE: CI0501
   P1V   P1D    P5    G1    G2    G3 PHINT
   2.0  32.0 548.1  25.8  44.1  0.50 150.0


*SIMULATED CROP AND SOIL STATUS AT MAIN DEVELOPMENT STAGES
  
 RUN NO.     70   ROOTS ANATOMY DROUGHT                                       

 ...... DATE ......  GROWTH STAGE BIOMASS   LEAF       CROP N      STRESS
 YEARDOY DOM MON DAP ............. kg/ha AREA NUMBER  kg/ha   %   H2O    N
 2022337   3 Dec   0 7 Sowing         0  0.00   0.0     0   0.0  0.00  0.00
 2022338   4 Dec   1 8 Germinate      0  0.00   0.0     0   0.0  0.00  0.00
 2022339   5 Dec   2 9 Emergence      0  0.00   0.0     0   0.0  0.00  0.00
 2023028  28 Jan  56 1 Term Spklt   528  0.95   6.8    25   4.7  0.50  0.11
 2023046  15 Feb  74 2 End Veg      875  1.36   8.7    28   3.2  0.60  0.00
 2023059  28 Feb  87 3 End Ear Gr  1404  0.93   8.7    27   1.9  0.56  0.00
 2023074  15 Mar 102 4 Beg Gr Fil  1901  0.62   8.7    27   1.4  0.66  0.00
 2023103  13 Apr 131 5 End Gr Fil  4300  0.12   8.7    43   1.0  0.06  0.00
 2023103  13 Apr 131 6 Harvest     4300  0.12   8.7    43   1.0  0.00  0.00
  

*MAIN GROWTH AND DEVELOPMENT VARIABLES

@     VARIABLE                             SIMULATED     MEASURED
      --------                             ---------     --------
      Emergence (DAP)                            2            6
      Anthesis (DAP)                            90           83
      Maturity (DAP)                           131          114
      Product wt (kg dm/ha;no loss)           1631         3107
      Product unit weight (g dm)             0.044        0.034
      Product number (no/m2)                  3698         9175
      Product number (no/group)                7.0        -99.0
      Product harvest index (ratio)           0.38         0.44
      Maximum leaf area index                  1.4          4.3
      Final leaf number (one axis)             8.7        -99.0
      Final shoot number (#/m2)                526          -99
      Canopy (tops) wt (kg dm/ha)             4300         7086
      Vegetative wt (kg dm/ha)                2669         3979
      Root wt (kg dm/ha)                       318          -99
      Assimilate wt (kg dm/ha)                4978          -99
      Senesced wt (kg dm/ha)                   201          -99
      Reserves wt (kg dm/ha)                  1597          -99
      N uptake (kg/ha)                        49.3        -99.0
      N senesced (kg/ha)                       2.8        -99.0
      Above-ground N (kg/ha)                  42.6        -99.0
      Root N (kg/ha)                           5.4        -99.0
      Vegetative N (kg/ha)                     7.6        -99.0
      Product N (kg/ha)                       35.0         59.1
      Product N harvest index (ratio)         0.82       -99.00
      Product N (%)                            2.1          1.9
      Vegetative N (%)                         0.3        -99.0
      Leaf+stem wt,anthesis (kg dm/ha)        1517          -99
      Leaf+stem N,anthesis (kg/ha)            27.1        -99.0
      Leaf N,anthesis (%)                      3.0        -99.0

*ENVIRONMENTAL AND STRESS FACTORS

 |-----Development Phase------|-------------Environment--------------|----------------Stress-----------------|
                              |--------Average-------|---Cumulative--|         (0=Min, 1=Max Stress)         |
                         Time  Temp  Temp Solar Photop         Evapo |----Water---|--Nitrogen--|--Phosphorus-|
                         Span   Max   Min   Rad  [day]   Rain  Trans  Photo         Photo         Photo
                         days    °C    °C MJ/m2     hr     mm     mm  synth Growth ' synth Growth  synth Growth
--------------------------------------------------------------------------------------------------------------
 Germinate  - Term Spklt   54  25.7   6.6  14.3  11.35   10.0   29.5  0.495  0.595  0.105  0.105 -99.00 -99.00
 Term Spklt - End Veg      18  25.3   5.7  15.8  11.78    3.6   10.5  0.597  0.690  0.000  0.000 -99.00 -99.00
 End Veg    - End Ear Gr   13  23.7   8.2  15.9  12.13    8.6   17.2  0.563  0.658  0.000  0.000 -99.00 -99.00
 End Ear Gr - Beg Gr Fil   15  28.3   7.3  20.5  12.49    0.1    7.4  0.663  0.734  0.000  0.000 -99.00 -99.00
 Beg Gr Fil - End Gr Fil   29  29.0   8.8  23.3  13.09   65.8   41.4  0.062  0.159  0.000  0.000 -99.00 -99.00
  
 Germinate  - End Gr Fil  129  26.5   7.2  17.4  12.02   88.1  106.0  0.438  0.533  0.044  0.044 -99.00 -99.00
--------------------------------------------------------------------------------------------------------------


*RESOURCE PRODUCTIVITY

 Growing season length: 129 days 

 Precipitation during growth season         88.1 mm[rain]
   Dry Matter Productivity                  4.88 kg[DM]/m3[rain]          =   48.8 kg[DM]/ha per mm[rain]
   Yield Productivity                       1.85 kg[grain yield]/m3[rain] =   18.5 kg[yield]/ha per mm[rain]

 Evapotranspiration during growth season   106.0 mm[ET]
   Dry Matter Productivity                  4.06 kg[DM]/m3[ET]            =   40.6 kg[DM]/ha per mm[ET]
   Yield Productivity                       1.54 kg[grain yield]/m3[ET]   =   15.4 kg[yield]/ha per mm[ET]

 Transpiration during growth season         69.7 mm[EP]
   Dry Matter Productivity                  6.17 kg[DM]/m3[EP]            =   61.7 kg[DM]/ha per mm[EP]
   Yield Productivity                       2.34 kg[grain yield]/m3[EP]   =   23.4 kg[yield]/ha per mm[EP]

 Irrigation during growing season          120.0 mm[irrig]
   Dry Matter Productivity                  3.58 kg[DM]/m3[irrig]         =   35.8 kg[DM]/ha per mm[irrig]
   Yield Productivity                       1.36 kg[grain yield]/m3[irrig]=   13.6 kg[yield]/ha per mm[irrig]

 N applied during growing season           173.0 kg[N applied]/ha
   Dry Matter Productivity                  24.9 kg[DM]/kg[N applied]
   Yield Productivity                        9.4 kg[yield]/kg[N applied]

 N uptake during growing season             49.3 kg[N uptake]/ha
   Dry Matter Productivity                  87.3 kg[DM]/kg[N uptake]
   Yield Productivity                       33.1 kg[yield]/kg[N uptake]

--------------------------------------------------------------------------------------------------------------

          WHEAT YIELD :     1631 kg/ha    [Dry weight] 

**************************************************************************************************************
