$GROWTH ASPECTS OUTPUT FILE

*DSSAT Cropping System Model Ver. 4.8.2.000 -release  JUN 22, 2025 18:25:50

*RUN   1        : WW23_G-1                  CSCER048 CIOB2301    1
 MODEL          : CSCER048 - Wheat
 EXPERIMENT     : CIOB2301 WH ROOTS ANATOMY
 DATA PATH      : C:\DSSAT48\Wheat\
 TREATMENT  1   : WW23_G-1                  CSCER048
  
@YEAR DOY   DAS   DAP TMEAN TKILL  GSTD  L#SD PARID PARUD  AWAD  LAID  SAID  CAID  TWAD SDWAD  RWAD  CWAD  LWAD  SWAD  HWAD  HIAD CHWAD  EWAD RSWAD SNWPD SNWLD SNWSD  RS%D  H#AD  HWUD  T#AD  SLAD  RDPD  PTFD  SWXD WAVRD WUPRD  WFTD  WFPD  WFGD  NFTD  NFPD  NFGD NUPRD  TFPD  TFGD VRNFD DYLFD
 2022 327    83     0  17.6  -6.0  0.00  0.00  0.00  0.00   0.0  0.00 0.000  0.00    43    43     0     0     0     0     0  0.00     0     0     0     0     0     0   0.0     0     0   150   -99  0.04  0.00  19.7  99.9  1.00  0.00  0.00  0.00  0.00  0.00  0.00   0.0  0.00  0.00  0.52  0.00
 2022 328    84     1  16.4  -6.0  5.84  0.00  0.00  0.00   0.0  0.00 0.000  0.00    43    43     0     0     0     0     0  0.00     0     0     0     0     0     0   0.0     0     0   150   -99  0.04  0.00   7.2  99.9  1.00  0.00  0.00  0.00  0.00  0.00  0.00   0.0  0.00  0.00  0.52  0.00
 2022 329    85     2  17.4  -6.0  8.40  0.00  0.00  0.00   0.0  0.00 0.000  0.00    43    41     1     0     0     0     0  0.00     0     0     0     0     0     0   0.0     0     0   150   -99  0.06  0.00   4.2  99.9  1.00  0.00  0.00  0.00  0.00  0.00  0.00   0.0  0.00  0.00  0.52  0.00
 2022 330    86     3  18.0  -6.0 10.00  0.00  0.00  0.00   0.0  0.00 0.000  0.00    43    40     2     0     0     0     0  0.00     0     0     0     0     0 .0011   0.0     0     0   150   -99  0.09  0.00   3.3  99.9  1.00  0.00  0.00  0.00  0.00  0.00  0.00   2.0  0.00  0.00  0.52  0.00
 2022 331    87     4  16.3  -6.0 10.29  0.29  0.02  0.00   0.0  0.03 0.003  0.03    43    26     4    13     9     4     0  0.00     0     0     0     0     0 .0030   0.0     0     0   150   350  0.11  0.75   3.3  99.9  1.00  0.00  0.00  0.00  0.00  0.00  0.00   0.1  0.00  0.00  0.52  0.31
 2022 332    88     5  16.1  -6.0 10.57  0.57  0.02  0.52   0.8  0.04 0.004  0.04    43    22     5    17    11     6     0  0.00     0     0     1     0 0.129 .0058   4.0     0     0   150   347  0.13  0.68   3.5  60.3  0.25  1.00  0.75  0.80  0.00  0.00  0.00   0.1  0.00  0.00  0.52  0.31
 2022 333    89     6  18.1  -6.0 10.89  0.89  0.03  0.42   0.8  0.05 0.005  0.05    44    16     6    22    14     8     0  0.00     0     0     1     0 0.291 .0100   6.4     0     0   150   347  0.15  0.68   4.8  64.3  0.27  1.00  0.73  0.80  0.23  0.23  0.23   0.2  0.00  0.00  0.52  0.31
 2022 334    90     7  18.5  -6.0 11.22  1.22  0.04  0.43   1.0  0.06 0.006  0.06    44    12     7    26    16     9     0  0.00     0     0     1     0 0.492 .0154   5.8     0     0   150   346  0.18  0.69   6.2  67.8  0.33  1.00  0.67  0.74  0.38  0.38  0.38   0.2  0.00  0.00  0.52  0.31
 2022 335    91     8  19.2  -6.0 11.56  1.56  0.04  0.41   1.1  0.06 0.006  0.07    45     9     8    28    18    10     0  0.00     0     0     2     0 0.732 .0222   5.7     0     0   150   345  0.20  0.70   7.6  68.2  0.37  1.00  0.63  0.72  0.46  0.46  0.46   0.6  0.00  0.00  0.52  0.31
 2022 336    92     9  23.0  -6.0 11.97  1.97  0.04  0.44   1.3  0.06 0.006  0.07    46     9     8    29    18    11     0  0.00     0     0     2     0     1 .0315   5.9     0     0   150   345  0.24  0.70   9.4  76.2  0.39  1.00  0.61  0.70  0.45  0.45  0.45   1.0  0.00  0.20  0.52  0.31
 2022 337    93    10  23.0  -6.0 12.19  2.19  0.04  0.51   1.4  0.06 0.006  0.07    47     9     9    30    19    11     0  0.00     0     0     2     0 1.260 .0412   6.1     0     0   150   344  0.27  0.70  11.1  96.4  0.42  1.00  0.58  0.68  0.40  0.40  0.40   1.3  0.00  0.20  0.52  0.31
 2022 338    94    11  22.0  -6.0 12.38  2.38  0.04  0.56   1.5  0.07 0.007  0.07    48     9     9    30    19    11     0  0.00     0     0     2     0 1.536 .0508   6.3     0     0   150   343  0.29  0.70  12.8  99.9  0.43  1.00  0.57  0.67  0.36  0.36  0.36   1.5  0.00  0.13  0.52  0.31
 2022 339    95    12  22.2  -6.0 12.58  2.58  0.04  1.38   1.6  0.07 0.007  0.08    49     9     9    32    20    12     0  0.00     0     0     2     0 1.536 .0608   5.5     0     0   190   342  0.32  0.73  14.5  99.9  1.04  0.00  0.00  0.20  0.33  0.33  0.33   1.5  0.00  0.15  0.52  0.31
 2022 340    96    13  19.7  -6.0 12.75  2.75  0.05  1.45   1.2  0.07 0.007  0.08    51     9     9    33    21    12     0  0.00     0     0     2     0 1.536 .0700   4.8     0     0   227   341  0.35  0.73  18.1  99.9  1.46  0.00  0.00  0.00  0.29  0.29  0.29   1.6  0.00  0.00  0.52  0.31
 2022 341    97    14  20.0  -6.0 12.93  2.93  0.05  1.40   2.1  0.07 0.008  0.08    52     9    10    34    22    12     0  0.00     0     0     1     0 1.536 .0794   4.2     0     0   265   340  0.37  0.74  18.5  99.9  0.93  0.14  0.07  0.28  0.27  0.27  0.27   1.4  0.00  0.00  0.52  0.32
 2022 342    98    15  20.8  -6.0 13.11  3.11  0.05  0.65   2.1  0.08 0.008  0.08    54     9    10    35    23    13     0  0.00     0     0     2     0 1.858 .0895   4.6     0     0   265   339  0.39  0.71  19.1  99.9  0.42  1.00  0.58  0.68  0.24  0.24  0.24   1.4  0.00  0.05  0.52  0.32
 2022 343    99    16  18.0  -6.0 13.27  3.27  0.05  0.64   2.4  0.08 0.008  0.09    56     9    11    37    23    13     0  0.00     0     0     2     0 2.189 .0987   5.0     0     0   265   338  0.40  0.70  20.0  99.9  0.39  1.00  0.61  0.70  0.21  0.21  0.21   1.6  0.00  0.00  0.52  0.32
 2022 344   100    17  17.0  -6.0 13.42  3.42  0.05  0.65   2.6  0.08 0.008  0.09    58     9    11    38    24    14     0  0.00     0     0     2     0 2.531 0.108   5.3     0     0   265   337  0.41  0.71  20.9  99.9  0.39  1.00  0.61  0.70  0.19  0.19  0.19   1.6  0.00  0.00  0.52  0.32
 2022 345   101    18  16.2  -6.0 13.56  3.56  0.05  0.73   2.9  0.08 0.009  0.09    60     9    11    40    25    14     0  0.00     0     0     2     0 2.886 0.117   5.5     0     0   265   336  0.43  0.71  21.8  99.9  0.43  1.00  0.57  0.67  0.17  0.17  0.17   1.6  0.00  0.00  0.52  0.32
 2022 346   102    19  16.1  -6.0 13.71  3.71  0.06  0.77   3.2  0.09 0.009  0.10    62     9    12    42    26    15     0  0.00     0     0     2     0 3.255 0.126   5.7     0     0   265   335  0.44  0.71  22.6  99.9  0.44  1.00  0.56  0.66  0.15  0.15  0.15   1.6  0.00  0.00  0.52  0.32
 2022 347   103    20  15.1  -6.0 13.84  3.84  0.06  0.90   3.7  0.09 0.010  0.10    65     9    13    44    28    16     0  0.00     0     0     3     0 3.641 0.135   5.8     0     0   265   333  0.46  0.72  69.2  99.9  0.50  1.00  0.50  0.61  0.13  0.13  0.13   1.3  0.00  0.00  0.52  0.32
 2022 348   104    21  15.2  -6.0 21.01  3.97  0.07  1.82   8.5  0.11 0.011  0.12    73     9    14    50    32    18     0  0.00     0     0     2     0 3.641 0.145   4.8     0     0   301   331  0.47  0.76  52.4  99.9  2.10  0.00  0.00  0.00  0.11  0.11  0.11   1.7  0.00  0.00  0.52  0.32
 2022 349   105    22  14.6  -6.0 21.24  4.10  0.08  1.87   9.7  0.12 0.013  0.14    82     9    15    58    37    21     0  0.00     0     0     2     0 3.641 0.155   4.0     0     0   336   330  0.48  0.76  37.3  99.9  2.16  0.00  0.00  0.00  0.09  0.09  0.09   1.5  0.00  0.00  0.51  0.32
 2022 350   106    23  12.5  -6.0 21.45  4.21  0.08  1.90   6.3  0.13 0.013  0.14    86     9    16    61    39    23     0  0.00     0     0     3     0 4.888 0.164   5.6     0     0   367   328  0.49  0.76  31.2  99.9  2.37  0.00  0.00  0.00  0.07  0.07  0.07   1.4  0.00  0.00  0.43  0.32
 2022 351   107    24  14.9  -6.0 21.70  4.35  0.09  1.93  11.2  0.14 0.015  0.15    95     9    18    68    43    26     0  0.00     0     0     5     0 6.386 0.176   6.9     0     0   404   326  0.50  0.76  29.3  99.9  1.31  0.00  0.00  0.00  0.06  0.06  0.06   0.9  0.00  0.00  0.43  0.32
 2022 352   108    25  15.5  -6.0 21.95  4.48  0.09  1.93  12.3  0.15 0.016  0.17   104     9    19    76    47    29     0  0.00     0     0     6     0 7.949 0.190   7.9     0     0   443   324  0.52  0.77  29.5  99.9  1.22  0.00  0.00  0.06  0.06  0.06  0.06   0.9  0.00  0.00  0.43  0.32
 2022 353   109    26  14.8  -6.0 22.20  4.61  0.10  1.94  13.7  0.17 0.018  0.19   115     9    21    85    52    33     0  0.00     0     0     7     0 9.444 0.204   8.3     0     0   480   322  0.53  0.77  30.0  99.9  1.10  0.00  0.00  0.15  0.05  0.05  0.05   0.9  0.00  0.00  0.42  0.32
 2022 354   110    27  16.6  -6.0 22.48  4.76  0.11  1.96  13.8  0.18 0.020  0.20   126     9    23    94    57    37     0  0.00     0     0     8     0 11.13 0.222   8.8     0     0   522   320  0.54  0.77  30.6  99.9  1.13  0.00  0.00  0.13  0.05  0.05  0.05   1.0  0.00  0.00  0.42  0.32
 2022 355   111    28  15.2  -6.0 22.74  4.89  0.13  1.98  17.0  0.21 0.023  0.23   141     9    26   107    66    41     0  0.00     0     0     8     0 11.29 0.240   7.4     0     0   561   319  0.56  0.77  31.1  99.9  1.01  0.00  0.00  0.22  0.03  0.03  0.03   0.9  0.00  0.00  0.42  0.32
 2022 356   112    29  15.3  -6.0 22.98  5.03  0.14  1.87  18.5  0.24 0.026  0.27   158     9    28   121    76    46     0  0.00     0     0     7     0 11.29 0.260   6.1     0     0   597   318  0.57  0.77  31.6  89.0  0.94  0.11  0.06  0.27  0.04  0.04  0.04   0.8  0.00  0.00  0.42  0.32
 2022 357   113    30  15.9  -6.0 23.20  5.17  0.16  1.73  19.2  0.27 0.030  0.30   175     9    31   135    85    51     0  0.00     0     0     8     0 11.82 0.282   5.6     0     0   631   316  0.58  0.76  32.1  79.5  0.90  0.20  0.10  0.31  0.06  0.06  0.06   0.8  0.00  0.00  0.42  0.32
 2022 358   114    31  16.2  -6.0 23.42  5.31  0.18  1.66  20.4  0.30 0.033  0.33   193     9    34   150    95    56     0  0.00     0     0     8     0 12.36 0.307   5.1     0     0   663   314  0.60  0.76  32.6  72.3  0.87  0.26  0.13  0.33  0.07  0.07  0.07   0.9  0.00  0.00  0.42  0.32
 2022 359   115    32  17.8  -6.0 23.71  5.47  0.19  1.55  21.1  0.33 0.037  0.36   211     9    37   166   105    61     0  0.00     0     0     8     0 12.96 0.337   4.8     0     0   707   313  0.61  0.76  33.1  64.1  0.82  0.37  0.18  0.37  0.07  0.07  0.07   0.9  0.00  0.00  0.48  0.32
 2022 360   116    33  17.0  -6.0 23.97  5.62  0.21  1.50  22.6  0.36 0.040  0.40   231     9    40   182   116    67     0  0.00     0     0     8     0 13.53 0.368   4.4     0     0   746   312  0.63  0.76  33.6  59.8  0.79  0.43  0.21  0.39  0.07  0.07  0.07   0.9  0.00  0.00  0.48  0.32
 2022 361   117    34  17.5  -6.0 24.21  5.78  0.23  1.46  23.5  0.39 0.044  0.44   251     9    43   199   127    73     0  0.00     0     0     8     0 14.12 0.403   4.2     0     0   782   310  0.64  0.75  34.0  55.7  0.76  0.48  0.24  0.42  0.06  0.06  0.06   1.0  0.00  0.00  0.52  0.32
 2022 362   118    35  16.6  -6.0 24.63  5.92  0.24  1.94  21.3  0.42 0.048  0.47   270     9    46   215   137    78     0  0.00     0     0     8     0 14.69 0.439   3.9     0     0   845   310  0.65  0.77  34.4  86.8  1.21  0.00  0.00  0.07  0.05  0.05  0.05   1.2  0.00  0.00  0.52  0.32
 2022 363   119    36  17.2  -6.0 25.07  6.08  0.25  1.96   9.9  0.44 0.050  0.49   279     9    48   223   142    80     0  0.00     0     0     8     0 15.10 0.479   3.7     0     0   910   309  0.66  0.78  35.3  99.9  2.72  0.00  0.00  0.00  0.04  0.04  0.04   2.0  0.00  0.00  0.52  0.32
 2022 364   120    37  18.6  -6.0 25.28  6.24  0.27  1.42  25.8  0.47 0.054  0.53   301     9    51   241   154    87     0  0.00     0     0     9     0 15.68 0.523   3.5     0     0   942   308  0.68  0.75  35.8  51.9  0.72  0.56  0.28  0.45  0.04  0.04  0.04   1.1  0.00  0.00  0.52  0.32
 2022 365   121    38  17.8  -6.0 25.44  6.40  0.28  1.33  27.0  0.51 0.059  0.57   325     9    55   261   167    94     0  0.00     0     0     9     0 16.25 0.569   3.4     0     0   966   306  0.69  0.75  36.2  47.2  0.67  0.66  0.33  0.49  0.03  0.03  0.03   1.1  0.00  0.00  0.52  0.32
 2023   1   122    39  16.6  -6.0 25.68  6.54  0.30  1.54  29.2  0.55 0.063  0.62   351     9    60   283   181   102     0  0.00     0     0     9     0 16.77 0.615   3.2     0     0  1002   305  0.70  0.76  36.5  53.3  0.77  0.46  0.23  0.41  0.02  0.02  0.02   1.1  0.00  0.00  0.52  0.32
 2023   2   123    40  15.1  -6.0 26.02  6.68  0.32  1.87  31.1  0.60 0.069  0.67   379     9    64   306   197   110     0  0.00     0     0     9     0 17.25 0.660   3.1     0     0  1053   304  0.71  0.78  36.7  63.3  0.93  0.14  0.07  0.29  0.02  0.02  0.02   1.1  0.00  0.00  0.52  0.32
 2023   3   124    41  13.8  -6.0 26.13  6.80  0.34  1.33  32.3  0.64 0.074  0.72   407     9    69   330   212   118     0  0.00     0     0    10     0 17.69 0.704   2.9     0     0  1070   303  0.72  0.75  76.4  91.6  0.66  0.69  0.34  0.50  0.01  0.01  0.01   1.0  0.00  0.00  0.48  0.32
 2023   4   125    42  16.3  -6.0 26.56  6.94  0.37  2.04  54.2  0.72 0.084  0.81   456     9    76   372   239   133     0  0.00     0     0    10     0 18.21 0.760   2.8     0     0  1134   302  0.74  0.78  59.5  58.1  1.97  0.00  0.00  0.00  0.01  0.01  0.01   1.3  0.00  0.00  0.48  0.32
 2023   5   126    43  17.6  -6.0 27.03  7.10  0.41  2.04  61.6  0.81 0.095  0.91   512     9    84   420   269   151     0  0.00     0     0    11     0 18.69 0.827   2.7     0     0  1204   302  0.75  0.78  50.3  43.2  1.91  0.00  0.00  0.00  0.00  0.00  0.00   1.3  0.00  0.00  0.51  0.32
 2023   6   127    44  18.3  -6.0 27.51  7.26  0.44  2.05  66.4  0.90 0.106  1.01   571     9    92   470   301   170     0  0.00     0     0    14     0 20.34 0.903   2.9     0     0  1277   299  0.76  0.79  46.7  37.7  1.51  0.00  0.00  0.00  0.00  0.00  0.00   1.0  0.00  0.00  0.51  0.32
 2023   7   128    45  17.7  -6.0 27.98  7.42  0.48  2.05  69.5  0.99 0.118  1.11   633     9   101   523   334   189     0  0.00     0     0    16     0 21.95 0.985   3.0     0     0  1347   298  0.77  0.79  46.1  36.3  1.45  0.00  0.00  0.00  0.00  0.00  0.00   1.0  0.00  0.00  0.51  0.31
 2023   8   129    46  17.3  -6.0 28.44  7.57  0.51  2.05  74.7  1.10 0.131  1.23   699     9   110   581   370   211     0  0.00     0     0    17     0 23.52 1.072   3.0     0     0  1416   296  0.79  0.79  45.7  33.7  1.33  0.00  0.00  0.00  0.00  0.00  0.00   1.0  0.00  0.00  0.51  0.31
 2023   9   130    47  16.6  -6.0 28.88  7.72  0.55  2.05  83.6  1.21 0.145  1.36   774     9   121   645   410   235     0  0.00     0     0    19     0 25.04 1.164   3.0     0     0  1482   295  0.80  0.79  45.0  30.0  1.15  0.00  0.00  0.11  0.00  0.00  0.00   0.9  0.00  0.00  0.51  0.31
 2023  10   131    48  17.2  -6.0 29.33  7.87  0.58  2.03  85.7  1.33 0.160  1.49   851     9   132   711   451   259     0  0.00     0     0    21     0 26.62 1.268   3.0     0     0  1550   295  0.81  0.79  44.4  28.1  1.02  0.00  0.00  0.21  0.01  0.01  0.01   0.9  0.00  0.00  0.51  0.31
 2023  11   132    49  17.9  -6.0 29.66  8.03  0.61  1.70  80.2  1.44 0.174  1.61   922     9   143   771   489   282     0  0.00     0     0    23     0 28.26 1.386   3.0     0     0  1599   294  0.82  0.77  43.8  24.5  0.85  0.31  0.15  0.35  0.02  0.02  0.02   1.0  0.00  0.00  0.52  0.31
 2023  12   133    50  18.4  -6.0 29.92  8.19  0.63  1.54  76.9  1.52 0.185  1.70   986     9   153   824   521   302     0  0.00     0     0    29     0 34.43 1.517   3.5     0     0  1638   291  0.84  0.77  43.3  23.0  0.77  0.46  0.23  0.41  0.02  0.02  0.02   1.0  0.00  0.00  0.52  0.31
 2023  13   134    51  16.6  -6.0 30.00  8.34  0.65  1.51  76.8  1.60 0.196  1.80  1049     9   164   877   553   324     0  0.00     0     0    34     0 40.04 1.645   3.9     0     0  1671   290  0.85  0.76  42.8  22.7  0.75  0.51  0.25  0.43  0.01  0.01  0.01   1.2  0.00  0.00  0.52  0.31
 2023  14   135    52  17.6  -6.0 30.00  8.49  0.67  1.44  74.7  1.68 0.207  1.89  1111     9   174   928   583   345     0  0.00     0     0    39     0 46.00 1.789   4.2     0     0  1700   289  0.86  0.76  42.3  21.6  0.71  0.58  0.29  0.45  0.01  0.01  0.01   1.2  0.00  0.00  0.52  0.31
 2023  15   136    53  16.9  -6.0 30.00  8.64  0.68  2.04  74.7  1.77 0.218  1.99  1174     9   184   981   614   367     0  0.00     0     0    43     0 51.70 1.936   4.3     0     0  1767   288  0.88  0.79  41.8  31.4  1.04  0.00  0.00  0.20  0.00  0.00  0.00   1.2  0.00  0.00  0.52  0.31
 2023  16   137    54  17.0  -6.0 30.00  8.79  0.70  1.36  74.3  1.85 0.229  2.08  1235     9   194  1032   645   387     0  0.00     0     0    46     0 57.45 2.092   4.5     0     0  1789   287  0.89  0.76  41.3  20.7  0.66  0.67  0.34  0.49  0.00  0.00  0.00   1.2  0.00  0.00  0.52  0.31
 2023  17   138    55  14.1  -6.0 30.00  8.92  0.71  2.05  34.5  1.89 0.234  2.12  1261     9   198  1054   659   396     0  0.00     0     0    47     0 62.25 2.229   4.5     0     0  1845   287  0.90  0.79  41.7  72.7  2.19  0.00  0.00  0.00  0.00  0.00  0.00   2.0  0.00  0.00  0.49  0.31
 2023  18   139    56  13.8  -6.0 30.00  9.04  0.72  1.35  73.5  1.97 0.246  2.22  1323     9   209  1106   690   415     0  0.00     0     0    50     0 66.94 2.366   4.5     0     0  1862   286  0.91  0.76  41.0  21.8  0.66  0.68  0.34  0.49  0.00  0.00  0.00   1.3  0.00  0.00  0.45  0.31
 2023  19   140    57  14.2  -6.0 30.00  9.16  0.73  1.24  68.7  2.04 0.255  2.30  1378     9   219  1151   717   434     0  0.00     0     0    53     0 73.58 2.515   4.6     0     0  1874   285  0.92  0.75  40.4  20.9  0.61  0.79  0.39  0.53  0.00  0.00  0.00   1.4  0.00  0.00  0.43  0.31
 2023  20   141    58  13.8  -6.0 30.00  9.28  0.74  1.04  65.6  2.07 0.260  2.33  1420     9   229  1183   728   455     0  0.00     0     0    66     0 90.09 2.665   5.6     0     0  1875   284  0.93  0.75  92.7  42.3  0.51  0.98  0.49  0.61  0.00  0.00  0.00   1.6  0.00  0.00  0.39  0.30
 2023  21   142    59  14.1  -6.0 30.00  9.41  0.76  2.05 130.4  2.23 0.281  2.51  1533     9   245  1280   788   492     0  0.00     0     0    71     0 96.69 2.826   5.5     0     0  1931   283  0.94  0.80  75.8  33.9  3.01  0.00  0.00  0.00  0.00  0.00  0.00   1.9  0.00  0.00  0.36  0.30
 2023  22   143    60  14.1  -6.0 30.00  9.53  0.79  2.05 138.0  2.39 0.305  2.70  1653     9   261  1384   852   532     0  0.00     0     0    75     0 103.3 2.998   5.4     0     0  1987   281  0.95  0.80  65.7  27.7  3.03  0.00  0.00  0.00  0.00  0.00  0.00   1.5  0.00  0.00  0.33  0.30
 2023  23   144    61  12.6  -6.0 30.00  9.64  0.81  2.05 120.6  2.54 0.325  2.87  1758     9   276  1474   909   565     0  0.00     0     0    77     0 109.2 3.162   5.2     0     0  2036   280  0.96  0.80  62.4  31.4  3.36  0.00  0.00  0.00  0.00  0.00  0.00   1.8  0.00  0.00  0.25  0.30
 2023  24   145    62  13.1  -6.0 30.00  9.76  0.83  2.05 146.8  2.73 0.350  3.08  1887     9   293  1585   978   607     0  0.00     0     0    81     0 115.4 3.343   5.1     0     0  2036   279  0.97  0.80  59.9  24.5  2.67  0.00  0.00  0.00  0.00  0.00  0.00   1.4  0.00  0.00  0.19  0.30
 2023  25   146    63  14.5  -6.0 30.00  9.89  0.85  2.05 151.5  2.92 0.377  3.30  2021     9   311  1701  1052   649     0  0.00     0     0    83     0 120.5 3.556   4.9     0     0  2036   278  0.98  0.80  57.2  21.8  2.26  0.00  0.00  0.00  0.00  0.00  0.00   1.4  0.00  0.00  0.17  0.30
 2023  26   147    64  15.7  -6.0 30.00 10.03  0.87  2.05 143.0  3.12 0.404  3.53  2152     9   328  1815  1129   687     0  0.00     0     0    80     0 120.5 3.799   4.4     0     0  2036   277  0.99  0.80  55.1  21.7  2.15  0.00  0.00  0.00  0.00  0.00  0.00   1.4  0.00  0.00  0.17  0.30
 2023  27   148    65  12.1  -6.0 30.00 10.13  0.88  2.05 116.7  3.28 0.425  3.70  2256     9   342  1906  1188   717     0  0.00     0     0    79     0 123.3 3.999   4.2     0     0  2036   276  1.00  0.80  53.6  27.6  2.49  0.00  0.00  0.00  0.00  0.00  0.00   1.7  0.00  0.00  0.00  0.00
 2023  28   149    66  15.6  -6.0 30.00 10.27  0.89  2.05 131.9  3.44 0.448  3.89  2373     9   357  2007  1249   759     0  0.00     0     0    81     0 127.7 4.266   4.0     0     0  2036   275  1.01  0.80  52.1  21.9  1.79  0.00  0.00  0.00  0.00  0.00  0.00   1.6  0.00  0.00  0.00  0.00
 2023  29   150    67  14.4  -6.0 30.00 10.40  0.91  2.05 162.1  3.63 0.477  4.11  2519     9   376  2134  1323   811     0  0.00     0     0    85     0 131.8 4.524   4.0     0     0  2036   275  1.02  0.81  50.0  17.5  1.27  0.00  0.00  0.02  0.00  0.00  0.00   1.4  0.00  0.00  0.00  0.00
 2023  30   151    68  14.6  -6.0 30.00 10.53  0.92  2.05 146.8  3.81 0.503  4.31  2650     9   393  2248  1389   860     0  0.00     0     0    88     0 135.9 4.797   3.9     0     0  2036   274  1.03  0.81  48.3  18.5  1.17  0.00  0.00  0.10  0.00  0.00  0.00   1.5  0.00  0.00  0.00  0.00
 2023  31   152    69  14.5  -6.0 30.31 10.66  0.92  1.98 146.7  3.98 0.529  4.51  2781     9   409  2363  1454   909     0  0.00     0     0    91     0 140.0 5.082   3.9     0     0  2036   274  1.04  0.81  46.5  17.2  0.96  0.07  0.04  0.26  0.00  0.00  0.00   1.5  0.00  0.00  0.00  0.00
 2023  32   153    70  13.4  -6.0 30.95 10.77  0.93  2.05 114.8  4.12 0.550  4.67  2883     9   422  2452  1503   949     0  0.00     0     0    93     0 143.8 5.355   3.8     0     0  2036   274  1.05  0.81  45.4  23.0  1.14  0.00  0.00  0.12  0.00  0.00  0.00   2.0  0.00  0.00  0.00  0.00
 2023  33   154    71  15.9  -6.0 31.70 10.91  0.94  1.43 110.7  4.23 0.569  4.80  2979     9   436  2535  1549   986     0  0.00     0     0    95     0 148.4 5.690   3.8     0     0  2036   273  1.06  0.79  44.3  15.3  0.70  0.60  0.30  0.46  0.00  0.00  0.00   2.0  0.00  0.00  0.00  0.00
 2023  34   155    72  16.9  -6.0 32.50 11.06  0.94  1.25  96.6  4.33 0.585  4.92  3062     9   448  2605  1586  1019     0  0.00     0     0    97     0 153.2 6.057   3.7     0     0  2036   273  1.08  0.78  87.6  29.2  0.61  0.78  0.39  0.53  0.00  0.00  0.00   2.0  0.00  0.00  0.00  0.00
 2023  35   156    73  16.9  -6.0 33.31 11.21  0.95  2.05 164.9  4.51 0.614  5.12  3210     9   465  2736  1657  1079     0  0.00     0     0   105     0 158.0 6.435   3.8     0     0  2036   272  1.09  0.82  79.5  25.3  3.42  0.00  0.00  0.00  0.00  0.00  0.00   2.0  0.00  0.00  0.00  0.00
 2023  36   157    74  18.1  -6.0 34.17 11.37  0.95  2.05 166.0  4.67 0.643  5.32  3359     9   482  2868  1727  1141     0  0.00     0     0   113     0 163.2 6.858   3.9     0     0  2036   271  1.10  0.82  74.4  22.9  4.22  0.00  0.00  0.00  0.00  0.00  0.00   2.0  0.00  0.00  0.00  0.00
 2023  37   158    75  16.7  -6.0 34.97 11.52  0.96  2.05 160.1  4.83 0.671  5.50  3503     9   499  2996  1793  1203     0  0.00     0     0   120     0 168.0 7.261   4.0     0     0  2036   269  1.11  0.83  72.0  23.9  4.53  0.00  0.00  0.00  0.00  0.00  0.00   2.0  0.00  0.00  0.00  0.00
 2023  38   159    76  16.2  -6.0 35.74 11.66  0.96  2.05 174.7  5.00 0.702  5.70  3660     9   516  3136  1864  1272     0  0.00     0     0   129     0 172.7 7.664   4.1     0     0  2036   268  1.12  0.83  69.5  21.5  3.84  0.00  0.00  0.00  0.00  0.00  0.00   2.0  0.00  0.00  0.00  0.00
 2023  39   160    77  18.1  -6.0 36.60 11.82  0.97  2.05 180.4  5.17 0.734  5.91  3823     9   533  3281  1937  1344     0  0.00     0     0   139     0 177.9 8.132   4.3     0     0  2036   267  1.14  0.83  66.7  18.9  3.07  0.00  0.00  0.00  0.00  0.00  0.00   2.0  0.00  0.00  0.00  0.00
 2023  40   161    78  15.1  -6.0 37.32 11.96  0.97  2.05 183.2  5.34 0.768  6.11  3990     9   551  3430  2010  1420     0  0.00     0     0   149     0 182.3 8.535   4.3     0     0  2036   266  1.15  0.84  64.0  18.9  2.48  0.00  0.00  0.00  0.00  0.00  0.00   2.0  0.00  0.00  0.00  0.00
 2023  41   162    79  17.1  -6.0 38.14 12.11  0.97  2.05 162.0  5.46 0.797  6.26  4136     9   566  3561  2073  1489     0  0.00     0     0   157     0 187.3 9.007   4.4     0     0  1976   263  1.16  0.84  61.6  19.7  2.14  0.00  0.00  0.00  0.00  0.00  0.00   2.0  0.00  0.00  0.00  0.00
 2023  42   163    80  14.0  -6.0 38.81 12.23  0.97  2.05  58.8  5.49 0.809  6.30  4186     9   571  3607  2091  1516     0  0.00     0     0   152     0 191.4 9.403   4.2     0     0  1928   263  1.17  0.84  61.2  58.5  5.24  0.00  0.00  0.00  0.00  0.00  0.00   2.0  0.00  0.00  0.00  0.00
 2023  43   164    81  15.7  -6.0 39.55 12.37  0.97  2.05 165.5  5.60 0.839  6.44  4337     9   586  3742  2153  1589     0  0.00     0     0   162     0 196.0 9.852   4.3     0     0  1875   260  1.18  0.85  58.9  19.2  1.68  0.00  0.00  0.00  0.00  0.00  0.00   2.0  0.00  0.00  0.00  0.00
 2023  44   165    82  13.9  -6.0 40.23 12.49  0.97  2.05 111.9  5.67 0.860  6.53  4437     9   596  3833  2193  1640     0  0.00     0     0   164     0 200.1 10.26   4.3     0     0  1831   259  1.19  0.85  57.5  29.1  2.17  0.00  0.00  0.00  0.00  0.00  0.00   2.0  0.00  0.00  0.00  0.00
 2023  45   166    83  13.7  -6.0 40.91 12.49  0.97  2.92 238.0  5.61 0.890  6.50  4661     9   617  4036  2250  1775     0  0.00     0     0   235    10 200.1 10.67   5.8     0     0  1788   249  1.20  0.85  55.1  18.4  1.28  0.00  0.00  0.02  0.00  0.00  0.00   2.0  0.00  0.00  0.00  0.00
 2023  46   167    84  14.2  -6.0 41.62 12.49  0.97  2.92 244.9  5.54 0.922  6.46  4891     9   637  4245  2245  1978     0  0.00     0     0   309    21 200.1 11.10   7.3     0     0  1745   247  1.21  0.85  56.5  18.4  1.06  0.00  0.00  0.18  0.00  0.00  0.00   2.0  0.00  0.00  0.00  0.00
 2023  47   168    85  14.1  -6.0 42.33 12.49  0.97  2.92 270.2  5.48 0.958  6.43  5145     9   660  4477  2234  2211     0  0.00     0     0   389    32 200.1 11.55   8.7     0     0  1703   245  1.22  0.86  53.0  15.7  1.37  0.00  0.00  0.00  0.00  0.00  0.00   2.0  0.00  0.00  0.00  0.00
 2023  48   169    86  12.8  -6.0 42.97 12.49  0.97  2.92 194.6  5.42 0.982  6.40  5329     9   676  4644  2224  2378     0  0.00     0     0   449    42 200.1 11.98   9.8     0     0  1666   243  1.22  0.86  97.2  40.6  1.29  0.00  0.00  0.01  0.00  0.00  0.00   2.0  0.00  0.00  0.00  0.00
 2023  49   170    87  17.4  -6.0 43.84 12.49  0.97  2.92 173.1  5.33 1.002  6.34  5492     9   689  4794  2208  2530     0  0.00     0     0   507    55 200.1 12.56  10.7     0     0  1618   242  1.21  0.86 103.6  44.9  7.26  0.00  0.00  0.00  0.00  0.00  0.00   2.0  0.00  0.00  0.00  0.00
 2023  50   171    88  18.8  -6.0 44.78 12.49  0.97  2.92 151.5  5.25 1.019  6.27  5635     9   700  4926  2192  2664     0  0.00     0     0   561    70 200.1 13.21  11.6     0     0  1567   239  1.21  0.87  90.2  43.3  9.59  0.00  0.00  0.00  0.00  0.00  0.00   2.0  0.00  0.00  0.00  0.00
 2023  51   172    89  18.3  -6.0 45.69 12.49  0.97  2.92 186.6  5.16 1.041  6.20  5811     9   714  5089  2177  2828     0  0.00     0     0   625    84 200.1 13.85  12.5     0     0  1520   237  1.21  0.87  84.1  33.0  8.09  0.00  0.00  0.00  0.00  0.00  0.00   2.0  0.00  0.00  0.00  0.00
 2023  52   173    90  16.3  -6.0 46.51 12.49  0.96  2.92 172.1  5.09 1.061  6.15  5974     9   726  5240  2163  2980     0  0.00     0     0   683    97 200.1 14.43  13.3     0     0  1479   235  1.21  0.88  82.1  36.9  9.44  0.00  0.00  0.00  0.00  0.00  0.00   2.0  0.00  0.00  0.00  0.00
 2023  53   174    91  15.3  -6.0 47.27 12.49  0.96  2.92 283.1  5.02 1.099  6.12  6244     9   745  5490  2150  3231     0  0.00     0     0   770   109 200.1 14.99  14.3     0     0  1442   234  1.21  0.88  78.3  21.8  5.95  0.00  0.00  0.00  0.00  0.00  0.00   2.0  0.00  0.00  0.00  0.00
 2023  54   175    92  16.1  -6.0 48.08 12.49  0.96  2.92 284.0  4.95 1.137  6.09  6514     9   764  5742  2136  3484     0  0.00     0     0   858   122 200.1 15.59  15.3     0     0  1405   232  1.21  0.89  74.3  20.0  5.27  0.00  0.00  0.00  0.00  0.00  0.00   2.0  0.00  0.00  0.00  0.00
 2023  55   176    93  13.1  -6.0 48.74 12.49  0.96  2.92 182.4  4.89 1.161  6.05  6688     9   776  5904  2125  3573     0  0.00    74    74   917   132 200.1 16.10  15.9     0     0  1375   230  1.21  0.89  71.9  32.2  6.95  0.00  0.00  0.00  0.00  0.00  0.00   2.0  0.00  0.00  0.00  0.00
 2023  56   177    94  15.6  -6.0 49.52 12.49  0.96  2.92 179.3  4.82 1.183  6.01  6859     9   786  6064  2110  3644     0  0.00   166   147   978   145 200.1 16.70  16.5     0     0  1341   229  1.21  0.89  69.4  30.0  5.86  0.00  0.00  0.00  0.00  0.00  0.00   2.0  0.00  0.00  0.00  0.00
 2023  57   178    95  17.0  -6.0 51.89 12.49  0.95  2.92 290.8  4.75 1.223  5.97  7137     9   804  6325  2094  3767     0  0.00   306   266  1070   159 200.1 17.37  17.4     0     0  1305   227  1.21  0.90  65.3  17.0  3.03  0.00  0.00  0.00  0.00  0.00  0.00   2.0  0.00  0.00  0.00  0.00
 2023  58   179    96  16.0  -6.0 55.99 12.49  0.95  2.92 290.2  4.70 1.259  5.95  7416     9   819  6588  2086  3874     0  0.00   461   385  1157   167 200.1 18.01  18.0     0     0  1272   225  1.21  0.91  61.2  16.2  2.39  0.00  0.00  0.00  0.00  0.00  0.00   2.0  0.00  0.00  0.00  0.00
 2023  59   180    97  16.1  -6.0 60.36 12.49  0.95  2.92 256.3  4.64 1.290  5.93  7663     9   832  6823  2078  3963     0  0.00   606   492  1236   175 200.1 18.67  18.6     0     0  1240   223  1.21  0.92  57.5  17.1  2.11  0.00  0.00  0.00  0.00  0.00  0.00   2.0  0.00  0.00  0.00  0.00
 2023  60   181    98  12.6  -6.0 70.01 12.49  0.95  2.92  87.6  4.60 1.296  5.90  7748     9   835  6904  2073  3973     0  0.00   677   529  1267   182 200.1 19.20  18.9     0     0  1216   222  1.21  0.93  56.4  54.0  5.47  0.00  0.00  0.00  0.00  0.00  0.00   2.0  0.00  0.00  0.00  0.00
 2023  61   182    99  14.6  -6.0 70.71 12.49  0.95  2.92 299.9  4.55 1.337  5.89  8039     9   846  7185  2065  4110     0  0.00   821   657  1359   190 200.1 19.81  19.4 14452 .0000  1189   221  1.21  0.94  52.4  14.0  1.43  0.00  0.00  0.00  0.00  0.00  0.00   2.0  0.00  0.00  0.00  0.00
 2023  62   183   100  14.9  -6.0 71.43 12.49  0.95  2.92 306.3  4.51 1.379  5.88  8338     9   855  7475  2057  4214    10  0.00   996   799  1444   198 200.1 20.44  19.9 14452 .0001  1162   219  1.21  0.95  48.1  12.4  1.08  0.00  0.00  0.17  0.00  0.00  0.00   2.0  0.00  0.00  0.00  0.00
 2023  63   184   101  14.5  -6.0 72.12 12.49  0.94  2.43 255.0  4.46 1.412  5.87  8587     9   864  7714  2049  4283    29  0.00  1147   927  1504   205 200.1 21.06  20.1 14452 .0002  1137   218  1.21  0.94  44.5  11.4  0.83  0.34  0.17  0.36  0.00  0.00  0.00   2.0  0.00  0.00  0.00  0.00
 2023  64   185   102  15.5  -6.0 72.87 12.49  0.94  1.89 200.9  4.41 1.436  5.85  8781     9   871  7901  2041  4322    62  0.01  1263  1044  1536   214 200.1 21.73  20.1 14452 .0004  1111   216  1.21  0.93  41.7  10.3  0.65  0.71  0.35  0.50  0.00  0.00  0.00   2.0  0.00  0.00  0.00  0.00
 2023  65   186   103  16.9  -6.0 73.68 12.49  0.94  1.61 164.8  4.27 1.453  5.72  8941     9   877  8055  1990  4344   111  0.01  1361  1164  1568   249 200.1 22.46  20.4 14452 .0008  1084   215  1.21  0.93  39.5   9.9  0.55  0.90  0.45  0.58  0.00  0.00  0.00   2.0  0.00  0.00  0.00  0.00
 2023  66   187   104  16.9  -6.0 74.49 12.49  0.94  1.81 143.2  4.22 1.444  5.66  9080     9   881  8191  1981  4373   174  0.02  1406  1227  1650   258 200.1 23.20  21.3 14452 .0012  1057   213  1.21  0.95  89.1  28.9  0.62  0.76  0.38  0.52  0.00  0.00  0.00   2.0  0.00  0.00  0.00  0.00
 2023  67   188   105  18.4  -6.0 75.37 12.49  0.93  2.92 270.8  4.16 1.434  5.60  9348     9   883  8457  1970  4500   258  0.03  1460  1311  1842   268 200.1 24.01  23.2 14452 .0018  1029   211  1.21  0.98  84.9  22.9  4.47  0.00  0.00  0.00  0.00  0.00  0.00   2.0  0.00  0.00  0.00  0.00
 2023  68   189   106  19.7  -6.0 76.32 12.49  0.93  2.92 294.7  4.10 1.423  5.53  9640     9   886  8745  1959  4627   366  0.04  1515  1419  2033   279 200.1 24.88  25.1 14452 .0025  1000   210  1.21  0.98  80.3  19.4  5.90  0.00  0.00  0.00  0.00  0.00  0.00   2.0  0.00  0.00  0.00  0.00
 2023  69   190   107  19.4  -6.0 77.25 12.49  0.93  2.92 306.1  4.05 1.413  5.46  9943     9   889  9045  1947  4749   491  0.05  1568  1544  2219   289 200.1 25.74  26.8 14452 .0034   973   208  1.21  0.98  75.5  17.7  5.84  0.00  0.00  0.00  0.00  0.00  0.00   2.0  0.00  0.00  0.00  0.00
 2023  70   191   108  19.6  -6.0 78.20 12.49  0.93  2.92 301.1  3.99 1.403  5.39 10240     9   891  9340  1936  4854   636  0.07  1614  1689  2380   300 200.1 26.62  28.3 14452 .0044   946   206  1.21  0.98  70.7  16.8  5.02  0.00  0.00  0.00  0.00  0.00  0.00   2.0  0.00  0.00  0.00  0.00
 2023  71   192   109  22.8  -6.0 79.29 12.49  0.92  2.92 298.9  3.92 1.392  5.31 10536     9   894  9633  1921  4926   827  0.09  1647  1879  2495   313 200.1 27.63  29.4 14452 .0057   917   204  1.21  0.98  65.7  14.8  3.49  0.00  0.00  0.00  0.00  0.00  0.00   2.0  0.00  0.18  0.00  0.00
 2023  72   193   110  22.0  -6.0 80.13 12.49  0.92  2.92 304.6  3.86 1.381  5.24 10837     9   897  9932  1908  4989  1035  0.10  1675  2088  2597   325 200.1 28.61  30.3 14452 .0072   889   202  1.21  0.98  60.6  13.7  2.50  0.00  0.00  0.00  0.00  0.00  0.00   2.0  0.00  0.13  0.00  0.00
 2023  73   194   111  19.8  -6.0 80.48 12.49  0.92  2.92 311.5  3.82 1.371  5.20 11145     9   900 10237  1907  5057  1240  0.12  1704  2293  2702   329 200.1 29.50  31.2 14452 .0086   866   201  1.21  0.98  55.6  12.8  1.85  0.00  0.00  0.00  0.00  0.00  0.00   2.0  0.00  0.00  0.00  0.00
 2023  74   195   112  19.5  -6.0 80.82 12.49  0.91  2.92 273.4  3.79 1.362  5.15 11416     9   902 10505  1906  5101  1442  0.14  1722  2495  2772   333 200.1 30.38  31.8 14452 .0100   844   199  1.21  0.98  51.5  13.6  1.56  0.00  0.00  0.00  0.00  0.00  0.00   2.0  0.00  0.00  0.00  0.00
 2023  75   196   113  20.5  -6.0 81.18 12.49  0.91  2.92 250.2  3.76 1.353  5.11 11663     9   904 10750  1904  5122  1655  0.15  1731  2707  2809   338 200.1 31.30  32.1 14452 .0114   822   197  1.21  0.98  48.0  13.7  1.29  0.00  0.00  0.01  0.00  0.00  0.00   2.0  0.00  0.03  0.00  0.00
 2023  76   197   114  20.0  -6.0 81.53 12.49  0.91  2.92 106.8  3.72 1.344  5.07 11768     9   904 10855  1903  5047  1862  0.17  1700  2915  2710   342 200.1 32.21  31.3 14452 .0129   801   196  1.21  0.98 100.6  68.9  2.43  0.00  0.00  0.00  0.00  0.00  0.00   2.0  0.00  0.00  0.00  0.00
 2023  77   198   115  19.0  -6.0 81.87 12.49  0.91  2.92 290.4  3.69 1.335  5.03 12055     9   907 11139  1902  5106  2060  0.18  1725  3113  2801   346 200.1 33.07  32.1 14452 .0143   782   194  1.20  0.98 117.6  29.8  5.44  0.00  0.00  0.00  0.00  0.00  0.00   2.0  0.00  0.00  0.00  0.00
 2023  78   199   116  19.0  -6.0 82.20 12.49  0.91  2.92 304.5  3.66 1.327  4.99 12356     9   910 11438  1901  5176  2258  0.20  1754  3310  2906   350 200.1 33.93  32.9 14452 .0156   764   193  1.20  0.98  99.5  23.9  6.40  0.00  0.00  0.00  0.00  0.00  0.00   2.0  0.00  0.00  0.00  0.00
 2023  79   200   117  19.0  -6.0 82.54 12.49  0.91  2.92 301.2  3.63 1.319  4.95 12654     9   913 11733  1899  5243  2455  0.21  1782  3508  3008   354 200.1 34.80  33.7 14452 .0170   746   191  1.20  0.98  85.3  20.9  6.04  0.00  0.00  0.00  0.00  0.00  0.00   2.0  0.00  0.00  0.00  0.00
 2023  80   201   118  20.1  -6.0 82.89 12.49  0.90  2.92 298.0  3.60 1.310  4.91 12949     9   915 12025  1897  5300  2663  0.22  1806  3716  3096   359 200.1 35.72  34.4 14452 .0184   728   190  1.20  0.98  80.0  19.6  6.50  0.00  0.00  0.00  0.00  0.00  0.00   2.0  0.00  0.01  0.00  0.00
 2023  81   202   119  20.2  -6.0 83.25 12.49  0.90  2.92 297.4  3.57 1.302  4.87 13243     9   918 12317  1895  5355  2873  0.23  1830  3926  3182   363 200.1 36.64  35.0 14452 .0199   711   188  1.20  0.98  75.1  18.0  5.94  0.00  0.00  0.00  0.00  0.00  0.00   2.0  0.00  0.02  0.00  0.00
 2023  82   203   120  19.6  -6.0 83.59 12.49  0.90  2.92 308.6  3.54 1.294  4.84 13548     9   921 12619  1894  5423  3077  0.24  1858  4129  3285   367 200.1 37.54  35.8 14452 .0213   695   187  1.20  0.98  70.2  16.6  5.25  0.00  0.00  0.00  0.00  0.00  0.00   2.0  0.00  0.00  0.00  0.00
 2023  83   204   121  17.6  -6.0 83.90 12.49  0.90  2.92 329.0  3.52 1.287  4.80 13874     9   924 12941  1893  5520  3259  0.25  1898  4312  3429   371 200.1 38.35  36.8 14452 .0226   681   186  1.20  0.98  65.2  15.0  3.80  0.00  0.00  0.00  0.00  0.00  0.00   2.0  0.00  0.00  0.00  0.00
 2023  84   205   122  17.1  -6.0 84.20 12.49  0.90  2.92 315.2  3.49 1.280  4.77 14186     9   927 13250  1891  5611  3437  0.26  1936  4489  3564   375 200.1 39.14  37.8 14452 .0238   668   185  1.20  0.98  60.9  14.8  2.95  0.00  0.00  0.00  0.00  0.00  0.00   2.0  0.00  0.00  0.00  0.00
 2023  85   206   123  17.5  -6.0 84.51 12.49  0.89  2.92 317.3  3.47 1.274  4.74 14500     9   930 13561  1889  5701  3618  0.27  1974  4671  3697   379 200.1 39.95  38.7 14452 .0250   656   184  1.20  0.98  56.6  13.4  2.15  0.00  0.00  0.00  0.00  0.00  0.00   2.0  0.00  0.00  0.00  0.00
 2023  86   207   124  17.5  -6.0 84.82 12.49  0.89  2.92 246.0  3.44 1.267  4.71 14743     9   932 13802  1887  5741  3800  0.28  1991  4853  3760   383 200.1 40.77  39.1 14452 .0263   643   182  1.20  0.98  89.1  27.3  2.07  0.00  0.00  0.00  0.00  0.00  0.00   2.0  0.00  0.00  0.00  0.00
 2023  87   208   125  18.8  -6.0 85.15 12.49  0.89  2.92 295.2  3.42 1.260  4.68 15035     9   935 14092  1885  5807  3994  0.28  2019  5047  3859   387 200.1 41.64  39.7 14452 .0276   631   181  1.20  0.98  83.7  20.7  6.19  0.00  0.00  0.00  0.00  0.00  0.00   2.0  0.00  0.00  0.00  0.00
 2023  88   209   126  18.0  -6.0 85.47 12.49  0.88  2.92 305.0  3.22 1.254  4.47 15336     9   937 14390  1788  5898  4181  0.29  2076  5234  4032   448 200.1 42.48  41.3 14452 .0289   619   180  1.20  0.98  78.8  19.1  6.68  0.00  0.00  0.00  0.00  0.00  0.00   2.0  0.00  0.00  0.00  0.00
 2023  89   210   127  19.3  -6.0 85.81 12.49  0.86  2.92 296.1  3.03 1.247  4.28 15629     9   940 14681  1694  5973  4381  0.30  2126  5434  4181   506 200.1 43.39  42.7 14452 .0303   607   179  1.20  0.98  73.8  18.2  6.28  0.00  0.00  0.00  0.00  0.00  0.00   2.0  0.00  0.00  0.00  0.00
 2023  90   211   128  18.7  -6.0 86.14 12.49  0.84  2.92 320.8  2.83 1.240  4.07 15947     9   943 14995  1593  6071  4575  0.31  2187  5628  4364   569 200.1 44.27  44.3 14452 .0317   596   178  1.20  0.98  68.5  15.9  4.88  0.00  0.00  0.00  0.00  0.00  0.00   2.0  0.00  0.00  0.00  0.00
 2023  91   212   129  19.4  -6.0 86.48 12.49  0.82  2.92 305.0  2.64 1.234  3.87 16248     9   946 15294  1493  6153  4776  0.31  2242  5828  4524   630 200.1 45.18  45.8 14452 .0330   584   176  1.20  0.98  64.0  15.4  3.75  0.00  0.00  0.00  0.00  0.00  0.00   2.0  0.00  0.00  0.00  0.00
 2023  92   213   130  20.8  -6.0 86.85 12.49  0.79  2.92 290.0  2.44 1.227  3.66 16535     9   948 15578  1390  6214  4992  0.32  2288  6045  4656   694 200.1 46.17  47.1 14452 .0345   573   175  1.20  0.98  59.9  14.8  2.86  0.00  0.00  0.00  0.00  0.00  0.00   2.0  0.00  0.06  0.00  0.00
 2023  93   214   131  18.6  -6.0 87.17 12.49  0.76  2.92 268.4  2.22 1.221  3.44 16800     9   951 15841  1277  6279  5185  0.33  2338  6238  4794   763 200.1 47.05  48.5 14452 .0359   563   174  1.20  0.98  56.2  15.7  2.43  0.00  0.00  0.00  0.00  0.00  0.00   2.0  0.00  0.00  0.00  0.00
 2023  94   215   132  17.1  -6.0 87.47 12.49  0.73  2.92 283.8  2.03 1.215  3.25 17081     9   953 16119  1175  6364  5363  0.33  2394  6415  4957   825 200.1 47.86  49.9 14452 .0371   554   173  1.20  0.98  52.5  14.6  1.88  0.00  0.00  0.00  0.00  0.00  0.00   2.0  0.00  0.00  0.00  0.00
 2023  95   216   133  15.9  -6.0 87.75 12.49  0.70  2.92 268.0  1.86 1.210  3.07 17346     9   956 16382  1080  6447  5526  0.34  2448  6578  5113   882 200.1 48.62  51.3 14452 .0382   546   172  1.20  0.98  49.2  14.9  1.60  0.00  0.00  0.00  0.00  0.00  0.00   2.0  0.00  0.00  0.00  0.00
 2023  96   217   134  15.9  -6.0 88.03 12.49  0.67  2.92 268.6  1.70 1.205  2.90 17612     9   958 16645   992  6530  5689  0.34  2500  6742  5266   934 200.1 49.38  52.5 14452 .0394   538   171  1.20  0.98  45.8  13.7  1.26  0.00  0.00  0.03  0.00  0.00  0.00   2.0  0.00  0.00  0.00  0.00
 2023  97   218   135  17.3  -6.0 88.34 12.49  0.63  2.92 256.0  1.54 1.196  2.73 17865     9   960 16896   903  6569  5869  0.35  2551  6921  5390  1004 200.1 50.21  53.8 14452 .0406   530   170  1.20  0.98  42.5  13.0  1.02  0.00  0.00  0.21  0.00  0.00  0.00   2.0  0.00  0.00  0.00  0.00
 2023  98   219   136  19.2  -6.0 88.68 12.49  0.59  2.41 201.4  1.36 1.186  2.55 18064     9   962 17093   805  6556  6068  0.35  2584  7120  5447  1080 200.1 51.13  54.8 14452 .0420   521   169  1.20  0.98  39.7  12.3  0.82  0.35  0.18  0.37  0.00  0.00  0.00   2.0  0.00  0.00  0.00  0.00
 2023  99   220   137  20.0  -6.0 89.03 12.49  0.53  2.11 165.4  1.17 1.175  2.34 18227     9   963 17255   696  6513  6275  0.36  2608  7328  5466  1164 200.1 52.09  55.7 14452 .0434   512   168  1.20  0.98  37.5  12.2  0.72  0.56  0.28  0.45  0.00  0.00  0.00   2.0  0.00  0.00  0.00  0.00
 2023 100   221   138  19.5  -6.0 89.37 12.49  0.47  2.18 143.6  0.97 1.165  2.13 18368     9   964 17396   580  6460  6477  0.37  2629  7530  5472  1250 200.1 53.03  56.6 14452 .0448   504   167  1.20  0.98  35.5  13.9  0.74  0.51  0.26  0.43  0.00  0.00  0.00   1.9  0.00  0.00  0.00  0.00
 2023 101   222   139  21.5  -6.0 89.75 12.49  0.40  2.03 121.9  0.77 1.154  1.93 18488     9   964 17516   467  6374  6701  0.38  2637  7753  5435  1337 200.1 54.07  57.3 14452 .0464   495   166  1.20  0.98  33.8  14.1  0.69  0.61  0.31  0.47  0.00  0.00  0.00   1.4  0.00  0.10  0.00  0.00
 2023 102   223   140  20.7  -6.0 90.32 12.49  0.31  2.21 111.5  0.56 1.143  1.70 18598     9   964 17625   341  6336  6850  0.39  2669  7903  5468  1429 200.1 55.06  58.5 14452 .0474   487   165  1.20  0.98  32.3  16.4  0.76  0.49  0.24  0.42  0.00  0.00  0.00   1.3  0.00  0.04  0.00  0.00

*DSSAT Cropping System Model Ver. 4.8.2.000 -release  JUN 22, 2025 18:25:50

*RUN   2        : WW23_G-2                  CSCER048 CIOB2301    2
 MODEL          : CSCER048 - Wheat
 EXPERIMENT     : CIOB2301 WH ROOTS ANATOMY
 DATA PATH      : C:\DSSAT48\Wheat\
 TREATMENT  2   : WW23_G-2                  CSCER048
  
@YEAR DOY   DAS   DAP TMEAN TKILL  GSTD  L#SD PARID PARUD  AWAD  LAID  SAID  CAID  TWAD SDWAD  RWAD  CWAD  LWAD  SWAD  HWAD  HIAD CHWAD  EWAD RSWAD SNWPD SNWLD SNWSD  RS%D  H#AD  HWUD  T#AD  SLAD  RDPD  PTFD  SWXD WAVRD WUPRD  WFTD  WFPD  WFGD  NFTD  NFPD  NFGD NUPRD  TFPD  TFGD VRNFD DYLFD
 2022 327    83     0  17.6  -6.0  0.00  0.00  0.00  0.00   0.0  0.00 0.000  0.00    43    43     0     0     0     0     0  0.00     0     0     0     0     0     0   0.0     0     0   150   -99  0.04  0.98  19.7  99.9  1.00  0.00  0.00  0.00  0.00  0.00  0.00   0.0  0.00  0.00  0.54  0.00
 2022 328    84     1  16.4  -6.0  5.84  0.00  0.00  0.00   0.0  0.00 0.000  0.00    43    43     0     0     0     0     0  0.00     0     0     0     0     0     0   0.0     0     0   150   -99  0.04  0.98   7.2  99.9  1.00  0.00  0.00  0.00  0.00  0.00  0.00   0.0  0.00  0.00  0.54  0.00
 2022 329    85     2  17.4  -6.0  8.40  0.00  0.00  0.00   0.0  0.00 0.000  0.00    43    41     1     0     0     0     0  0.00     0     0     0     0     0     0   0.0     0     0   150   -99  0.07  0.98   4.6  99.9  1.00  0.00  0.00  0.00  0.00  0.00  0.00   0.0  0.00  0.00  0.54  0.00
 2022 330    86     3  18.0  -6.0 10.00  0.00  0.00  0.00   0.0  0.00 0.000  0.00    43    40     3     0     0     0     0  0.00     0     0     0     0     0 .0013   0.0     0     0   150   -99  0.10  0.98   4.2  99.9  1.00  0.00  0.00  0.00  0.00  0.00  0.00   2.0  0.00  0.00  0.54  0.00
 2022 331    87     4  16.3  -6.0 10.28  0.28  0.03  0.00   0.0  0.03 0.003  0.03    43    26     4    13     8     4     0  0.00     0     0     0     0     0 .0037   0.0     0     0   150   350  0.12  0.75   4.4  99.9  1.00  0.00  0.00  0.00  0.00  0.00  0.00   0.1  0.00  0.00  0.54  0.26
 2022 332    88     5  16.1  -6.0 10.56  0.56  0.03  0.66   1.3  0.04 0.004  0.04    44    20     6    18    12     7     0  0.00     0     0     1     0 0.127 .0072   5.7     0     0   150   347  0.15  0.69   4.8  63.7  0.34  1.00  0.66  0.74  0.00  0.00  0.00   0.2  0.00  0.00  0.54  0.26
 2022 333    89     6  18.1  -6.0 10.88  0.88  0.04  0.46   1.2  0.05 0.005  0.06    45    13     7    24    15     9     0  0.00     0     0     2     0 0.298 .0123   8.5     0     0   150   347  0.18  0.69   6.4  61.5  0.32  1.00  0.68  0.75  0.26  0.26  0.26   0.2  0.00  0.00  0.54  0.26
 2022 334    90     7  18.5  -6.0 11.20  1.20  0.05  0.42   1.4  0.06 0.006  0.06    46    10     9    27    17    10     0  0.00     0     0     2     0 0.516 .0190   7.7     0     0   150   346  0.21  0.69   8.1  62.5  0.37  1.00  0.63  0.71  0.40  0.40  0.40   0.5  0.00  0.00  0.54  0.26
 2022 335    91     8  19.2  -6.0 11.53  1.53  0.05  0.45   1.7  0.06 0.006  0.07    47     9     9    29    18    11     0  0.00     0     0     2     0 0.763 .0274   7.5     0     0   150   346  0.24  0.70   9.9  65.5  0.41  1.00  0.59  0.68  0.42  0.42  0.42   1.0  0.00  0.00  0.54  0.26
 2022 336    92     9  23.0  -6.0 11.93  1.93  0.05  0.47   1.8  0.06 0.006  0.07    48     9    10    30    19    11     0  0.00     0     0     2     0 1.026 .0381   7.4     0     0   150   345  0.28  0.70  12.1  73.6  0.39  1.00  0.61  0.70  0.37  0.37  0.37   1.4  0.00  0.20  0.54  0.26
 2022 337    93    10  23.0  -6.0 12.16  2.16  0.06  0.53   2.0  0.07 0.007  0.07    50     9    10    31    19    12     0  0.00     0     0     2     0 1.299 .0493   7.3     0     0   150   344  0.32  0.70  14.3  92.1  0.41  1.00  0.59  0.68  0.33  0.33  0.33   1.5  0.00  0.20  0.54  0.26
 2022 338    94    11  22.0  -6.0 12.35  2.35  0.06  0.57   2.1  0.07 0.007  0.08    51     9    10    32    20    12     0  0.00     0     0     2     0 1.583 .0605   7.3     0     0   150   343  0.35  0.70  16.7  99.9  0.42  1.00  0.58  0.68  0.29  0.29  0.29   1.6  0.00  0.13  0.54  0.26
 2022 339    95    12  22.2  -6.0 12.55  2.55  0.06  1.42   2.2  0.07 0.007  0.08    53     9    11    34    21    12     0  0.00     0     0     2     0 1.583 .0721   6.3     0     0   193   342  0.38  0.74  18.2  99.9  1.03  0.00  0.00  0.21  0.26  0.26  0.26   1.6  0.00  0.15  0.54  0.26
 2022 340    96    13  19.7  -6.0 12.72  2.72  0.06  1.48   1.8  0.08 0.008  0.08    55     9    11    35    22    13     0  0.00     0     0     2     0 1.583 .0828   5.5     0     0   233   341  0.40  0.74  21.5  99.9  1.45  0.00  0.00  0.00  0.23  0.23  0.23   1.7  0.00  0.00  0.54  0.26
 2022 341    97    14  20.0  -6.0 12.89  2.89  0.07  1.37   2.8  0.08 0.008  0.09    57     9    12    37    24    13     0  0.00     0     0     2     0 1.583 .0938   4.7     0     0   274   340  0.42  0.74  22.1  99.9  0.90  0.20  0.10  0.31  0.20  0.20  0.20   1.5  0.00  0.00  0.54  0.26
 2022 342    98    15  20.8  -6.0 13.07  3.07  0.07  0.63   2.9  0.08 0.009  0.09    59     9    12    39    25    14     0  0.00     0     0     2     0 1.933 0.106   5.0     0     0   274   339  0.44  0.70  22.9  99.9  0.40  1.00  0.60  0.69  0.18  0.18  0.18   1.5  0.00  0.05  0.54  0.26
 2022 343    99    16  18.0  -6.0 13.23  3.23  0.07  0.62   3.3  0.09 0.009  0.10    62     9    13    41    26    15     0  0.00     0     0     2     0 2.298 0.117   5.3     0     0   274   337  0.46  0.70  24.2  99.9  0.38  1.00  0.62  0.70  0.16  0.16  0.16   1.7  0.00  0.00  0.54  0.27
 2022 344   100    17  17.0  -6.0 13.37  3.37  0.08  0.63   3.7  0.09 0.009  0.10    65     9    13    43    27    16     0  0.00     0     0     2     0 2.679 0.127   5.5     0     0   274   336  0.48  0.70  25.3  99.9  0.38  1.00  0.62  0.71  0.14  0.14  0.14   1.6  0.00  0.00  0.54  0.27
 2022 345   101    18  16.2  -6.0 13.51  3.51  0.08  0.69   4.1  0.10 0.010  0.11    68     9    14    46    29    17     0  0.00     0     0     3     0 3.079 0.138   5.6     0     0   274   335  0.49  0.71  26.3  99.9  0.41  1.00  0.59  0.68  0.12  0.12  0.12   1.6  0.00  0.00  0.54  0.27
 2022 346   102    19  16.1  -6.0 13.65  3.65  0.08  0.73   4.6  0.10 0.011  0.11    72     9    15    48    31    18     0  0.00     0     0     3     0 3.501 0.149   5.8     0     0   274   333  0.51  0.71  27.3  99.9  0.42  1.00  0.58  0.67  0.10  0.10  0.10   1.6  0.00  0.00  0.54  0.27
 2022 347   103    20  15.1  -6.0 13.79  3.79  0.09  0.83   5.2  0.11 0.011  0.12    76     9    16    52    33    19     0  0.00     0     0     3     0 3.948 0.160   5.8     0     0   274   332  0.53  0.72  75.5  99.9  0.48  1.00  0.52  0.63  0.09  0.09  0.09   1.3  0.00  0.00  0.54  0.27
 2022 348   104    21  15.2  -6.0 21.07  3.92  0.11  1.77  12.6  0.13 0.014  0.14    87     9    17    61    39    22     0  0.00     0     0     3     0 3.948 0.172   4.7     0     0   311   330  0.54  0.76  58.6  99.9  1.69  0.00  0.00  0.00  0.07  0.07  0.07   1.4  0.00  0.00  0.54  0.27
 2022 349   105    22  14.6  -6.0 21.31  4.04  0.12  1.80  14.7  0.15 0.016  0.17   100     9    19    73    47    26     0  0.00     0     0     3     0 3.948 0.185   3.8     0     0   346   328  0.56  0.76  43.2  99.9  1.72  0.00  0.00  0.00  0.06  0.06  0.06   1.2  0.00  0.00  0.53  0.27
 2022 350   106    23  12.5  -6.0 21.52  4.15  0.13  1.83   9.7  0.16 0.017  0.18   108     9    21    79    50    29     0  0.00     0     0     4     0 5.269 0.197   5.0     0     0   378   326  0.57  0.77  36.8  99.9  2.03  0.00  0.00  0.00  0.04  0.04  0.04   1.3  0.00  0.00  0.44  0.27
 2022 351   107    24  14.9  -6.0 21.77  4.28  0.15  1.84  17.8  0.18 0.020  0.20   123     9    23    91    57    34     0  0.00     0     0     5     0 6.856 0.213   6.0     0     0   415   324  0.59  0.77  34.9  99.9  1.12  0.00  0.00  0.14  0.03  0.03  0.03   0.8  0.00  0.00  0.44  0.27
 2022 352   108    25  15.5  -6.0 22.02  4.42  0.16  1.80  19.6  0.21 0.023  0.23   139     9    26   104    65    39     0  0.00     0     0     7     0 8.512 0.231   6.5     0     0   453   322  0.60  0.77  35.5  90.3  1.02  0.00  0.00  0.21  0.06  0.06  0.06   0.8  0.00  0.00  0.44  0.27
 2022 353   109    26  14.8  -6.0 22.26  4.54  0.18  1.71  21.2  0.24 0.026  0.26   156     9    29   119    73    45     0  0.00     0     0     8     0 10.10 0.250   6.8     0     0   489   320  0.62  0.77  36.0  81.8  0.96  0.07  0.04  0.26  0.07  0.07  0.07   0.9  0.00  0.00  0.43  0.27
 2022 354   110    27  16.6  -6.0 22.52  4.69  0.20  1.73  21.8  0.26 0.029  0.29   174     9    32   134    82    51     0  0.00     0     0     9     0 11.89 0.274   7.0     0     0   529   319  0.64  0.77  36.7  79.2  0.98  0.05  0.02  0.25  0.07  0.07  0.07   0.9  0.00  0.00  0.43  0.27
 2022 355   111    28  15.2  -6.0 22.72  4.82  0.23  1.54  23.9  0.30 0.033  0.33   195     9    35   151    94    57     0  0.00     0     0     9     0 12.18 0.298   6.0     0     0   557   318  0.65  0.76  37.2  66.5  0.86  0.28  0.14  0.34  0.07  0.07  0.07   1.0  0.00  0.00  0.43  0.27
 2022 356   112    29  15.3  -6.0 22.88  4.95  0.25  1.46  25.7  0.34 0.038  0.38   219     9    39   171   108    63     0  0.00     0     0     9     0 12.18 0.326   5.1     0     0   582   316  0.66  0.76  37.6  58.9  0.81  0.38  0.19  0.38  0.06  0.06  0.06   0.9  0.00  0.00  0.43  0.27
 2022 357   113    30  15.9  -6.0 23.03  5.09  0.28  1.38  27.0  0.38 0.042  0.43   243     9    43   191   121    70     0  0.00     0     0     8     0 12.18 0.357   4.3     0     0   604   316  0.68  0.75  38.0  53.1  0.77  0.45  0.23  0.41  0.06  0.06  0.06   0.9  0.00  0.00  0.43  0.27
 2022 358   114    31  16.2  -6.0 23.16  5.23  0.31  1.30  28.1  0.42 0.047  0.47   268     9    47   212   135    77     0  0.00     0     0     8     0 12.65 0.392   4.0     0     0   623   314  0.69  0.75  38.4  48.2  0.72  0.55  0.28  0.44  0.06  0.06  0.06   0.9  0.00  0.00  0.43  0.27
 2022 359   115    32  17.8  -6.0 23.26  5.39  0.33  1.19  28.2  0.46 0.052  0.52   292     9    52   232   148    84     0  0.00     0     0     9     0 13.17 0.434   3.7     0     0   638   313  0.71  0.74  39.0  43.0  0.66  0.68  0.34  0.49  0.06  0.06  0.06   1.0  0.00  0.00  0.50  0.27
 2022 360   116    33  17.0  -6.0 23.37  5.53  0.35  1.15  29.8  0.51 0.057  0.56   319     9    56   254   162    91     0  0.00     0     0     9     0 13.67 0.478   3.5     0     0   656   311  0.72  0.74  39.4  40.5  0.63  0.74  0.37  0.51  0.05  0.05  0.05   1.1  0.00  0.00  0.50  0.27
 2022 361   117    34  17.5  -6.0 23.46  5.69  0.38  1.11  30.4  0.55 0.062  0.61   345     9    61   276   177    99     0  0.00     0     0     9     0 14.18 0.527   3.3     0     0   670   310  0.74  0.74  39.9  38.2  0.60  0.79  0.40  0.54  0.04  0.04  0.04   1.1  0.00  0.00  0.54  0.27
 2022 362   118    35  16.6  -6.0 23.86  5.83  0.40  1.78  32.6  0.60 0.068  0.66   374     9    65   301   193   107     0  0.00     0     0     9     0 14.66 0.578   3.1     0     0   729   309  0.75  0.78  40.3  60.2  0.96  0.08  0.04  0.26  0.03  0.03  0.03   1.1  0.00  0.00  0.54  0.27
 2022 363   119    36  17.2  -6.0 24.30  5.98  0.42  1.87  15.8  0.62 0.070  0.69   388     9    67   312   201   111     0  0.00     0     0     9     0 15.17 0.634   2.9     0     0   795   309  0.77  0.78  41.4  99.9  2.11  0.00  0.00  0.00  0.02  0.02  0.02   2.0  0.00  0.00  0.54  0.27
 2022 364   120    37  18.6  -6.0 24.35  6.14  0.43  1.05  31.7  0.65 0.074  0.73   413     9    72   332   212   120     0  0.00     0     0    12     0 18.43 0.697   3.7     0     0   803   308  0.79  0.74  41.9  36.0  0.56  0.89  0.44  0.57  0.02  0.02  0.02   1.3  0.00  0.00  0.54  0.27
 2022 365   121    38  17.8  -6.0 24.38  6.29  0.45  0.99  32.7  0.68 0.078  0.76   439     9    77   353   223   130     0  0.00     0     0    15     0 22.23 0.761   4.4     0     0   807   307  0.80  0.73  42.4  33.7  0.52  0.95  0.48  0.60  0.01  0.01  0.01   1.6  0.00  0.00  0.54  0.27
 2023   1   122    39  16.6  -6.0 24.48  6.44  0.47  1.17  34.9  0.74 0.084  0.82   470     9    83   379   241   138     0  0.00     0     0    15     0 22.23 0.825   3.9     0     0   821   306  0.82  0.74  42.8  39.2  0.62  0.77  0.38  0.53  0.01  0.01  0.01   1.6  0.00  0.00  0.54  0.27
 2023   2   123    40  15.1  -6.0 24.67  6.57  0.50  1.42  36.8  0.79 0.091  0.88   503     9    88   406   260   147     0  0.00     0     0    14     0 22.23 0.888   3.4     0     0   851   305  0.83  0.76  43.1  47.1  0.75  0.50  0.25  0.42  0.00  0.00  0.00   1.2  0.00  0.00  0.54  0.27
 2023   3   124    41  13.8  -6.0 24.70  6.69  0.51  1.02  38.2  0.83 0.096  0.93   533     9    94   431   273   158     0  0.00     0     0    17     0 25.93 0.949   4.0     0     0   855   304  0.84  0.74  85.2  65.6  0.54  0.93  0.46  0.59  0.00  0.00  0.00   1.2  0.00  0.00  0.50  0.27
 2023   4   125    42  16.3  -6.0 25.12  6.83  0.56  1.91  76.1  0.94 0.110  1.05   603     9   104   491   312   178     0  0.00     0     0    17     0 25.93 1.025   3.5     0     0   918   302  0.86  0.78  68.6  44.4  1.79  0.00  0.00  0.00  0.00  0.00  0.00   1.5  0.00  0.00  0.50  0.27
 2023   5   126    43  17.6  -6.0 25.58  6.98  0.60  1.91  85.6  1.07 0.125  1.20   681     9   115   558   356   202     0  0.00     0     0    18     0 25.93 1.117   3.2     0     0   987   301  0.87  0.79  59.6  33.9  1.74  0.00  0.00  0.00  0.00  0.00  0.00   1.3  0.00  0.00  0.52  0.26
 2023   6   127    44  18.3  -6.0 26.05  7.14  0.65  1.91  91.0  1.21 0.142  1.35   764     9   126   629   402   228     0  0.00     0     0    18     0 25.93 1.222   2.9     0     0  1058   300  0.89  0.79  56.2  30.2  1.44  0.00  0.00  0.00  0.00  0.00  0.00   1.1  0.00  0.00  0.52  0.26
 2023   7   128    45  17.7  -6.0 26.51  7.29  0.68  1.91  94.5  1.33 0.158  1.49   848     9   138   701   447   254     0  0.00     0     0    21     0 28.50 1.333   3.1     0     0  1127   298  0.91  0.79  54.6  28.8  1.36  0.00  0.00  0.00  0.00  0.00  0.00   1.0  0.00  0.00  0.52  0.26
 2023   8   129    46  17.3  -6.0 26.96  7.44  0.72  1.91  99.8  1.47 0.175  1.64   937     9   151   777   495   283     0  0.00     0     0    25     0 31.01 1.453   3.2     0     0  1195   297  0.92  0.79  53.5  26.8  1.23  0.00  0.00  0.05  0.00  0.00  0.00   1.1  0.00  0.00  0.52  0.26
 2023   9   130    47  16.6  -6.0 27.40  7.59  0.75  1.91 109.7  1.62 0.194  1.81  1034     9   165   861   547   314     0  0.00     0     0    27     0 33.44 1.579   3.2     0     0  1260   295  0.94  0.79  52.4  24.1  1.03  0.00  0.00  0.21  0.00  0.00  0.00   1.0  0.00  0.00  0.52  0.26
 2023  10   131    48  17.2  -6.0 27.78  7.74  0.78  1.76 102.7  1.75 0.211  1.97  1126     9   178   939   596   343     0  0.00     0     0    30     0 35.96 1.720   3.2     0     0  1316   294  0.95  0.78  51.4  23.0  0.92  0.15  0.08  0.29  0.00  0.00  0.00   1.0  0.00  0.00  0.52  0.26
 2023  11   132    49  17.9  -6.0 28.05  7.89  0.80  1.52  96.7  1.89 0.228  2.12  1212     9   191  1012   641   371     0  0.00     0     0    31     0 37.24 1.879   3.1     0     0  1358   294  0.97  0.77  50.6  20.4  0.80  0.41  0.20  0.39  0.00  0.00  0.00   1.1  0.00  0.00  0.54  0.26
 2023  12   133    50  18.4  -6.0 28.26  8.05  0.82  1.37  90.5  2.02 0.244  2.26  1294     9   204  1081   683   398     0  0.00     0     0    30     0 37.24 2.055   2.8     0     0  1389   295  0.99  0.76  49.9  19.4  0.72  0.56  0.28  0.45  0.00  0.00  0.00   1.2  0.00  0.00  0.54  0.26
 2023  13   134    51  16.6  -6.0 28.40  8.20  0.84  1.26  84.1  2.10 0.255  2.35  1361     9   216  1136   719   417     0  0.00     0     0    38     0 45.81 2.225   3.4     0     0  1410   292  1.00  0.76  49.4  19.3  0.66  0.68  0.34  0.49  0.00  0.00  0.00   1.2  0.00  0.00  0.54  0.26
 2023  14   135    52  17.6  -6.0 28.49  8.35  0.84  1.13  75.8  2.12 0.260  2.38  1410     9   227  1174   732   442     0  0.00     0     0    56     0 65.08 2.416   4.8     0     0  1423   290  1.02  0.75  49.0  18.7  0.59  0.81  0.41  0.54  0.00  0.00  0.00   1.8  0.00  0.00  0.54  0.26
 2023  15   136    53  16.9  -6.0 28.78  8.50  0.85  1.58  73.2  2.19 0.270  2.46  1467     9   237  1222   759   463     0  0.00     0     0    61     0 73.80 2.607   5.0     0     0  1466   289  1.03  0.78  48.7  28.1  0.83  0.34  0.17  0.36  0.00  0.00  0.00   2.0  0.00  0.00  0.54  0.26
 2023  16   137    54  17.0  -6.0 28.80  8.64  0.85  1.00  67.8  2.21 0.274  2.49  1509     9   247  1253   768   486     0  0.00     0     0    77     0 93.28 2.807   6.1     0     0  1469   288  1.05  0.75  48.5  18.9  0.52  0.95  0.48  0.60  0.00  0.00  0.00   2.0  0.00  0.00  0.54  0.26
 2023  17   138    55  14.1  -6.0 29.16  8.76  0.86  1.91  39.0  2.27 0.281  2.55  1541     9   251  1281   788   493     0  0.00     0     0    74     0 96.93 2.981   5.8     0     0  1524   288  1.06  0.79  49.0  68.1  1.75  0.00  0.00  0.00  0.00  0.00  0.00   2.0  0.00  0.00  0.51  0.26
 2023  18   139    56  13.8  -6.0 29.18  8.88  0.87  1.00  66.0  2.32 0.288  2.61  1589     9   261  1319   808   511     0  0.00     0     0    80     0 108.0 3.155   6.0     0     0  1527   287  1.07  0.75  48.7  20.7  0.52  0.95  0.48  0.60  0.00  0.00  0.00   1.6  0.00  0.00  0.47  0.26
 2023  19   140    57  14.2  -6.0 29.18  9.01  0.87  0.93  61.6  2.37 0.295  2.66  1632     9   271  1353   827   527     0  0.00     0     0    85     0 119.3 3.341   6.3     0     0  1527   286  1.08  0.74  48.5  20.3  0.49  1.00  0.51  0.62  0.00  0.00  0.00   2.0  0.00  0.00  0.44  0.26
 2023  20   141    58  13.8  -6.0 29.18  9.13  0.87  0.80  59.2  2.37 0.298  2.67  1665     9   280  1377   832   545     0  0.00     0     0    98     0 139.3 3.527   7.1     0     0  1527   285  1.10  0.74 104.8  39.1  0.42  1.00  0.58  0.68  0.00  0.00  0.00   2.0  0.00  0.00  0.40  0.25
 2023  21   142    59  14.1  -6.0 29.55  9.25  0.89  1.91 143.0  2.55 0.321  2.87  1788     9   297  1483   897   585     0  0.00     0     0   102     0 147.9 3.724   6.9     0     0  1582   284  1.11  0.80  88.1  32.6  3.04  0.00  0.00  0.00  0.00  0.00  0.00   2.0  0.00  0.00  0.37  0.25
 2023  22   143    60  14.1  -6.0 29.55  9.37  0.91  1.91 149.3  2.73 0.346  3.07  1916     9   315  1593   966   627     0  0.00     0     0   105     0 156.5 3.933   6.6     0     0  1582   282  1.12  0.80  78.9  27.8  3.07  0.00  0.00  0.00  0.00  0.00  0.00   1.8  0.00  0.00  0.34  0.25
 2023  23   144    61  12.6  -6.0 29.55  9.48  0.92  1.91 128.6  2.89 0.368  3.25  2027     9   330  1688  1027   661     0  0.00     0     0   107     0 164.2 4.130   6.3     0     0  1582   281  1.13  0.80  76.4  32.5  3.79  0.00  0.00  0.00  0.00  0.00  0.00   2.0  0.00  0.00  0.26  0.25
 2023  24   145    62  13.1  -6.0 29.55  9.59  0.93  1.91 154.9  3.10 0.397  3.49  2166     9   349  1809  1107   702     0  0.00     0     0   105     0 167.1 4.347   5.8     0     0  1582   280  1.14  0.80  74.0  25.9  2.89  0.00  0.00  0.00  0.00  0.00  0.00   1.8  0.00  0.00  0.19  0.25
 2023  25   146    63  14.5  -6.0 29.55  9.72  0.94  1.91 158.1  3.32 0.427  3.75  2311     9   367  1935  1192   743     0  0.00     0     0   100     0 167.1 4.599   5.2     0     0  1582   279  1.16  0.80  71.6  23.5  2.46  0.00  0.00  0.00  0.00  0.00  0.00   1.6  0.00  0.00  0.00  0.00
 2023  26   147    64  15.7  -6.0 29.55  9.85  0.95  1.91 147.6  3.53 0.456  3.99  2447     9   384  2054  1273   781     0  0.00     0     0    96     0 167.1 4.887   4.7     0     0  1582   278  1.17  0.80  69.5  23.9  2.35  0.00  0.00  0.00  0.00  0.00  0.00   1.8  0.00  0.00  0.00  0.00
 2023  27   148    65  12.1  -6.0 29.55  9.96  0.96  1.91 119.0  3.70 0.479  4.18  2556     9   398  2150  1337   813     0  0.00     0     0    92     0 167.1 5.120   4.3     0     0  1582   277  1.18  0.81  67.9  30.9  2.65  0.00  0.00  0.00  0.00  0.00  0.00   2.0  0.00  0.00  0.00  0.00
 2023  28   149    66  15.6  -6.0 29.55 10.09  0.97  1.91 133.6  3.88 0.505  4.39  2679     9   413  2258  1398   860     0  0.00     0     0    89     0 167.1 5.431   4.0     0     0  1582   278  1.20  0.81  66.1  24.7  1.93  0.00  0.00  0.00  0.00  0.00  0.00   2.0  0.00  0.00  0.00  0.00
 2023  29   150    67  14.4  -6.0 30.10 10.22  0.97  1.91 162.9  4.07 0.534  4.61  2826     9   431  2386  1471   915     0  0.00     0     0    93     0 171.1 5.729   3.9     0     0  1582   277  1.21  0.81  63.6  20.0  1.39  0.00  0.00  0.00  0.00  0.00  0.00   1.8  0.00  0.00  0.00  0.00
 2023  30   151    68  14.6  -6.0 30.80 10.35  0.97  1.91 146.2  4.25 0.560  4.81  2956     9   448  2500  1535   965     0  0.00     0     0    97     0 175.2 6.043   3.9     0     0  1582   276  1.22  0.81  61.2  21.3  1.30  0.00  0.00  0.00  0.00  0.00  0.00   2.0  0.00  0.00  0.00  0.00
 2023  31   152    69  14.5  -6.0 31.49 10.47  0.98  1.91 150.6  4.42 0.587  5.00  3092     9   464  2619  1601  1018     0  0.00     0     0   101     0 179.3 6.368   3.8     0     0  1582   276  1.22  0.82  58.1  19.6  1.09  0.00  0.00  0.16  0.00  0.00  0.00   2.0  0.00  0.00  0.00  0.00
 2023  32   153    70  13.4  -6.0 32.12 10.59  0.98  1.91 112.9  4.55 0.608  5.15  3192     9   476  2708  1649  1059     0  0.00     0     0   102     0 183.0 6.677   3.8     0     0  1582   276  1.22  0.82  55.8  26.1  1.29  0.00  0.00  0.01  0.00  0.00  0.00   2.0  0.00  0.00  0.00  0.00
 2023  33   154    71  15.9  -6.0 32.88 10.72  0.98  1.51 123.0  4.68 0.629  5.31  3300     9   490  2802  1699  1102     0  0.00     0     0   105     0 187.5 7.054   3.8     0     0  1582   275  1.22  0.80  53.2  17.0  0.79  0.41  0.21  0.39  0.00  0.00  0.00   2.0  0.00  0.00  0.00  0.00
 2023  34   155    72  16.9  -6.0 33.68 10.87  0.98  1.29 104.6  4.78 0.647  5.43  3391     9   503  2880  1740  1140     0  0.00     0     0   107     0 192.2 7.468   3.7     0     0  1582   275  1.22  0.79  97.7  30.2  0.68  0.65  0.32  0.48  0.00  0.00  0.00   2.0  0.00  0.00  0.00  0.00
 2023  35   156    73  16.9  -6.0 34.48 11.02  0.99  1.91 160.5  4.95 0.675  5.63  3535     9   519  3007  1807  1201     0  0.00     0     0   115     0 197.0 7.893   3.8     0     0  1582   274  1.22  0.83  89.5  26.5  3.80  0.00  0.00  0.00  0.00  0.00  0.00   2.0  0.00  0.00  0.00  0.00
 2023  36   157    74  18.1  -6.0 35.35 11.17  0.99  1.91 160.8  5.11 0.704  5.81  3680     9   535  3136  1873  1263     0  0.00     0     0   123     0 202.1 8.364   3.9     0     0  1582   273  1.22  0.83  83.4  24.1  4.41  0.00  0.00  0.00  0.00  0.00  0.00   2.0  0.00  0.00  0.00  0.00
 2023  37   158    75  16.7  -6.0 36.14 11.32  0.99  1.91 154.5  5.26 0.731  5.99  3819     9   550  3260  1935  1325     0  0.00     0     0   130     0 206.8 8.811   4.0     0     0  1582   272  1.22  0.83  80.1  25.0  4.79  0.00  0.00  0.00  0.00  0.00  0.00   2.0  0.00  0.00  0.00  0.00
 2023  38   159    76  16.2  -6.0 36.92 11.46  0.99  1.91 168.0  5.41 0.761  6.18  3970     9   567  3395  2002  1393     0  0.00     0     0   139     0 211.4 9.257   4.1     0     0  1582   270  1.22  0.84  76.6  22.4  4.31  0.00  0.00  0.00  0.00  0.00  0.00   2.0  0.00  0.00  0.00  0.00
 2023  39   160    77  18.1  -6.0 37.78 11.62  0.99  1.91 172.9  5.57 0.792  6.36  4127     9   583  3535  2070  1465     0  0.00     0     0   149     0 216.5 9.771   4.2     0     0  1582   269  1.22  0.84  72.8  19.6  3.47  0.00  0.00  0.00  0.00  0.00  0.00   2.0  0.00  0.00  0.00  0.00
 2023  40   161    78  15.1  -6.0 38.50 11.75  0.99  1.91 175.0  5.73 0.824  6.55  4286     9   599  3678  2138  1540     0  0.00     0     0   158     0 220.8 10.21   4.3     0     0  1582   268  1.22  0.84  69.2  19.5  2.85  0.00  0.00  0.00  0.00  0.00  0.00   2.0  0.00  0.00  0.00  0.00
 2023  41   162    79  17.1  -6.0 39.32 11.90  0.99  1.91 154.4  5.87 0.852  6.72  4425     9   613  3804  2196  1608     0  0.00     0     0   165     0 225.7 10.72   4.3     0     0  1582   267  1.22  0.84  65.9  20.1  2.50  0.00  0.00  0.00  0.00  0.00  0.00   2.0  0.00  0.00  0.00  0.00
 2023  42   163    80  14.0  -6.0 39.98 12.02  0.99  1.91  55.9  5.93 0.864  6.79  4473     9   618  3847  2212  1635     0  0.00     0     0   160     0 229.7 11.15   4.2     0     0  1582   268  1.22  0.85  64.8  59.4  6.16  0.00  0.00  0.00  0.00  0.00  0.00   2.0  0.00  0.00  0.00  0.00
 2023  43   164    81  15.7  -6.0 40.77 12.15  0.99  1.91 157.4  6.05 0.892  6.95  4616     9   631  3976  2270  1707     0  0.00     0     0   169     0 234.2 11.64   4.2     0     0  1582   267  1.22  0.85  61.5  19.3  1.97  0.00  0.00  0.00  0.00  0.00  0.00   2.0  0.00  0.00  0.00  0.00
 2023  44   165    82  13.9  -6.0 41.46 12.15  0.99  2.87 159.6  6.01 0.911  6.92  4766     9   645  4113  2307  1795     0  0.00     0     0   221    11 234.2 12.08   5.4     0     0  1582   261  1.22  0.85  59.5  29.0  2.54  0.00  0.00  0.00  0.00  0.00  0.00   2.0  0.00  0.00  0.00  0.00
 2023  45   166    83  13.7  -6.0 42.15 12.15  0.99  2.87 238.0  5.97 0.942  6.91  4990     9   665  4317  2330  1965     0  0.00     0     0   293    22 234.2 12.52   6.8     0     0  1582   256  1.22  0.86  56.3  18.2  1.51  0.00  0.00  0.00  0.00  0.00  0.00   2.0  0.00  0.00  0.00  0.00
 2023  46   167    84  14.2  -6.0 42.85 12.15  0.99  2.87 245.1  5.93 0.974  6.90  5221     9   685  4528  2318  2177     0  0.00     0     0   367    33 234.2 12.99   8.2     0     0  1582   256  1.22  0.86  56.9  17.8  1.24  0.00  0.00  0.04  0.00  0.00  0.00   2.0  0.00  0.00  0.00  0.00
 2023  47   168    85  14.1  -6.0 43.56 12.15  0.99  2.87 270.7  5.86 1.009  6.87  5476     9   706  4762  2306  2412     0  0.00     0     0   448    44 234.2 13.47   9.5     0     0  1546   254  1.22  0.86  53.3  15.2  1.51  0.00  0.00  0.00  0.00  0.00  0.00   2.0  0.00  0.00  0.00  0.00
 2023  48   169    86  12.8  -6.0 44.20 12.15  0.99  2.87 195.1  5.79 1.034  6.83  5661     9   721  4931  2296  2581     0  0.00     0     0   509    54 234.2 13.93  10.4     0     0  1514   252  1.22  0.87  97.5  39.1  1.57  0.00  0.00  0.00  0.00  0.00  0.00   2.0  0.00  0.00  0.00  0.00
 2023  49   170    87  17.4  -6.0 45.07 12.15  0.99  2.87 173.7  5.71 1.055  6.76  5825     9   734  5082  2280  2735     0  0.00     0     0   568    68 234.2 14.55  11.3     0     0  1472   250  1.21  0.87 103.9  43.1  7.49  0.00  0.00  0.00  0.00  0.00  0.00   2.0  0.00  0.00  0.00  0.00
 2023  50   171    88  18.8  -6.0 46.01 12.15  0.99  2.87 152.2  5.62 1.071  6.69  5969     9   745  5215  2263  2870     0  0.00     0     0   623    83 234.2 15.24  12.1     0     0  1428   248  1.21  0.88  90.5  41.6  9.62  0.00  0.00  0.00  0.00  0.00  0.00   2.0  0.00  0.00  0.00  0.00
 2023  51   172    89  18.3  -6.0 46.93 12.15  0.99  2.87 187.7  5.53 1.093  6.62  6147     9   758  5381  2247  3036     0  0.00     0     0   688    97 234.2 15.92  13.0     0     0  1387   246  1.21  0.88  84.4  31.7  8.23  0.00  0.00  0.00  0.00  0.00  0.00   2.0  0.00  0.00  0.00  0.00
 2023  52   173    90  16.3  -6.0 47.74 12.15  0.99  2.87 173.4  5.45 1.114  6.57  6312     9   769  5534  2233  3190     0  0.00     0     0   747   110 234.2 16.54  13.8     0     0  1351   244  1.21  0.88  82.4  35.4  9.56  0.00  0.00  0.00  0.00  0.00  0.00   2.0  0.00  0.00  0.00  0.00
 2023  53   174    91  15.3  -6.0 48.51 12.15  0.99  2.87 285.5  5.38 1.153  6.53  6584     9   788  5788  2220  3445     0  0.00     0     0   835   123 234.2 17.13  14.7     0     0  1319   242  1.21  0.89  78.6  20.9  6.01  0.00  0.00  0.00  0.00  0.00  0.00   2.0  0.00  0.00  0.00  0.00
 2023  54   175    92  16.1  -6.0 49.32 12.15  0.99  2.87 286.7  5.31 1.191  6.50  6858     9   805  6044  2205  3586     0  0.00   116   116   925   136 234.2 17.77  15.7     0     0  1287   241  1.21  0.89  74.6  19.1  5.46  0.00  0.00  0.00  0.00  0.00  0.00   2.0  0.00  0.00  0.00  0.00
 2023  55   176    93  13.1  -6.0 49.97 12.15  0.99  2.87 184.4  5.24 1.215  6.46  7034     9   816  6209  2194  3648     0  0.00   220   192   986   147 234.2 18.30  16.3     0     0  1261   239  1.21  0.90  72.2  30.7  7.36  0.00  0.00  0.00  0.00  0.00  0.00   2.0  0.00  0.00  0.00  0.00
 2023  56   177    94  15.6  -6.0 53.78 12.15  0.99  2.87 181.5  5.17 1.238  6.41  7207     9   827  6372  2178  3719     0  0.00   316   266  1047   159 234.2 18.94  16.9     0     0  1231   237  1.21  0.90  69.7  28.5  6.19  0.00  0.00  0.00  0.00  0.00  0.00   2.0  0.00  0.00  0.00  0.00
 2023  57   178    95  17.0  -6.0 58.01 12.15  0.99  2.87 294.7  5.11 1.274  6.39  7491     9   842  6641  2169  3842     0  0.00   461   388  1137   169 234.2 19.64  17.6     0     0  1200   236  1.21  0.91  65.5  16.2  3.19  0.00  0.00  0.00  0.00  0.00  0.00   2.0  0.00  0.00  0.00  0.00
 2023  58   179    96  16.0  -6.0 66.18 12.15  0.99  2.87 294.5  5.06 1.311  6.37  7775     9   855  6912  2161  3951     0  0.00   623   512  1227   177 234.2 20.31  18.2     0     0  1172   234  1.21  0.92  61.4  15.3  2.49  0.00  0.00  0.00  0.00  0.00  0.00   2.0  0.00  0.00  0.00  0.00
 2023  59   180    97  16.1  -6.0 70.54 12.15  0.99  2.87 260.4  5.00 1.343  6.34  8028     9   864  7155  2153  4042     0  0.00   774   622  1309   186 234.2 21.00  18.8     0     0  1145   232  1.21  0.93  57.7  16.2  2.17  0.00  0.00  0.00  0.00  0.00  0.00   2.0  0.00  0.00  0.00  0.00
 2023  60   181    98  12.6  -6.0 71.15 12.15  0.99  2.87  89.1  4.96 1.350  6.31  8115     9   867  7239  2147  4048     6  0.00   846   666  1336   193 234.2 21.55  19.0 16377 .0000  1124   231  1.21  0.94  56.6  51.1  5.56  0.00  0.00  0.00  0.00  0.00  0.00   2.0  0.00  0.00  0.00  0.00
 2023  61   182    99  14.6  -6.0 71.86 12.15  0.99  2.87 305.3  4.91 1.392  6.30  8414     9   875  7530  2139  4176    22  0.00   993   814  1415   201 234.2 22.18  19.4 16377 .0001  1100   229  1.21  0.95  52.6  13.3  1.45  0.00  0.00  0.00  0.00  0.00  0.00   2.0  0.00  0.00  0.00  0.00
 2023  62   183   100  14.9  -6.0 72.58 12.15  0.98  2.87 312.2  4.86 1.436  6.29  8721     9   881  7831  2130  4272    49  0.01  1170   978  1487   209 234.2 22.83  19.6 16377 .0003  1077   228  1.21  0.96  48.4  11.7  1.08  0.00  0.00  0.17  0.00  0.00  0.00   2.0  0.00  0.00  0.00  0.00
 2023  63   184   101  14.5  -6.0 73.28 12.15  0.98  2.34 256.2  4.81 1.470  6.28  8972     9   887  8076  2122  4331    84  0.01  1321  1125  1533   218 234.2 23.47  19.7 16377 .0005  1056   227  1.21  0.96  44.8  10.8  0.82  0.36  0.18  0.37  0.00  0.00  0.00   2.0  0.00  0.00  0.00  0.00
 2023  64   185   102  15.5  -6.0 74.02 12.15  0.98  1.81 200.0  4.76 1.461  6.22  9167     9   893  8265  2113  4394   135  0.02  1396  1176  1680   226 234.2 24.16  21.3 16377 .0008  1033   225  1.21  0.95  41.9   9.7  0.63  0.74  0.37  0.52  0.00  0.00  0.00   2.0  0.00  0.00  0.00  0.00
 2023  65   186   103  16.9  -6.0 74.84 12.15  0.98  1.53 163.6  4.61 1.451  6.06  9326     9   897  8420  2061  4458   206  0.02  1433  1247  1800   262 234.2 24.91  22.6 16377 .0013  1010   224  1.21  0.95  39.5   9.2  0.53  0.93  0.47  0.59  0.00  0.00  0.00   2.0  0.00  0.00  0.00  0.00
 2023  66   187   104  16.9  -6.0 75.66 12.15  0.98  1.70 141.1  4.46 1.442  5.90  9464     9   900  8556  2010  4497   291  0.03  1460  1332  1887   298 234.2 25.67  23.7 16377 .0018   987   222  1.21  0.97  89.9  27.2  0.59  0.81  0.41  0.54  0.00  0.00  0.00   2.0  0.00  0.00  0.00  0.00
 2023  67   188   105  18.4  -6.0 76.54 12.15  0.98  2.87 277.8  4.40 1.432  5.83  9739     9   902  8829  1998  4612   400  0.05  1510  1440  2061   309 234.2 26.49  25.4 16377 .0024   962   220  1.21  0.98  85.8  21.5  4.17  0.00  0.00  0.00  0.00  0.00  0.00   2.0  0.00  0.00  0.00  0.00
 2023  68   189   106  19.7  -6.0 77.50 12.15  0.98  2.87 302.7  4.34 1.421  5.76 10039     9   905  9125  1986  4725   534  0.06  1560  1575  2234   320 234.2 27.38  27.0 16377 .0033   938   219  1.21  0.98  81.1  18.2  5.56  0.00  0.00  0.00  0.00  0.00  0.00   2.0  0.00  0.00  0.00  0.00
 2023  69   190   107  19.4  -6.0 78.43 12.15  0.98  2.87 314.9  4.28 1.410  5.69 10350     9   908  9434  1974  4835   686  0.07  1608  1727  2402   331 234.2 28.26  28.5 16377 .0042   914   217  1.21  0.98  76.3  16.6  5.60  0.00  0.00  0.00  0.00  0.00  0.00   2.0  0.00  0.00  0.00  0.00
 2023  70   191   108  19.6  -6.0 79.38 12.15  0.97  2.87 310.3  4.22 1.400  5.62 10657     9   911  9738  1962  4927   859  0.09  1649  1899  2545   342 234.2 29.15  29.8 16377 .0052   891   215  1.21  0.98  71.5  15.7  5.00  0.00  0.00  0.00  0.00  0.00  0.00   2.0  0.00  0.00  0.00  0.00
 2023  71   192   109  22.8  -6.0 80.18 12.15  0.97  2.87 308.5  4.15 1.388  5.54 10962     9   913 10040  1946  4982  1081  0.11  1675  2122  2638   355 234.2 30.19  30.7 16377 .0066   866   213  1.21  0.98  66.5  13.9  3.46  0.00  0.00  0.00  0.00  0.00  0.00   2.0  0.00  0.18  0.00  0.00
 2023  72   193   110  22.0  -6.0 80.57 12.15  0.97  2.87 314.9  4.11 1.377  5.49 11273     9   916 10349  1945  5033  1315  0.13  1697  2356  2717   360 234.2 31.19  31.3 16377 .0080   843   211  1.21  0.98  61.4  12.8  2.46  0.00  0.00  0.00  0.00  0.00  0.00   2.0  0.00  0.13  0.00  0.00
 2023  73   194   111  19.8  -6.0 80.92 12.15  0.97  2.87 323.0  4.08 1.368  5.45 11593     9   919 10665  1944  5105  1525  0.14  1727  2566  2828   364 234.2 32.10  32.2 16377 .0093   823   210  1.21  0.98  56.4  11.9  1.79  0.00  0.00  0.00  0.00  0.00  0.00   2.0  0.00  0.00  0.00  0.00
 2023  74   195   112  19.5  -6.0 81.26 12.15  0.97  2.87 283.8  4.05 1.358  5.40 11873     9   921 10943  1943  5153  1731  0.16  1747  2772  2904   368 234.2 32.99  32.8 16377 .0106   804   208  1.21  0.98  52.1  12.6  1.49  0.00  0.00  0.00  0.00  0.00  0.00   2.0  0.00  0.00  0.00  0.00
 2023  75   196   113  20.5  -6.0 81.63 12.15  0.97  2.87 259.9  4.01 1.349  5.36 12130     9   924 11198  1941  5177  1949  0.17  1758  2990  2945   373 234.2 33.94  33.2 16377 .0119   785   207  1.21  0.98  48.0  12.6  1.22  0.00  0.00  0.06  0.00  0.00  0.00   2.0  0.00  0.03  0.00  0.00
 2023  76   197   114  20.0  -6.0 81.98 12.15  0.97  2.87 111.1  3.98 1.339  5.32 12240     9   924 11307  1940  5102  2162  0.19  1726  3203  2846   377 234.2 34.86  32.5 16377 .0132   767   205  1.21  0.98 100.7  63.2  2.25  0.00  0.00  0.00  0.00  0.00  0.00   2.0  0.00  0.00  0.00  0.00
 2023  77   198   115  19.0  -6.0 82.32 12.15  0.97  2.87 302.4  3.95 1.331  5.28 12539     9   927 11603  1939  5166  2364  0.20  1753  3405  2944   382 234.2 35.74  33.2 16377 .0144   751   204  1.20  0.98 116.9  27.1  4.90  0.00  0.00  0.00  0.00  0.00  0.00   2.0  0.00  0.00  0.00  0.00
 2023  78   199   116  19.0  -6.0 82.66 12.15  0.97  2.87 317.4  3.92 1.322  5.24 12853     9   930 11915  1937  5241  2566  0.22  1785  3607  3057   386 234.2 36.63  34.1 16377 .0157   735   202  1.20  0.98  99.8  22.0  5.82  0.00  0.00  0.00  0.00  0.00  0.00   2.0  0.00  0.00  0.00  0.00
 2023  79   200   117  19.0  -6.0 83.00 12.15  0.97  2.87 314.4  3.89 1.314  5.20 13164     9   933 12223  1935  5313  2769  0.23  1815  3809  3167   390 234.2 37.51  34.9 16377 .0169   720   201  1.20  0.98  85.4  19.1  5.65  0.00  0.00  0.00  0.00  0.00  0.00   2.0  0.00  0.00  0.00  0.00
 2023  80   201   118  20.1  -6.0 83.35 12.15  0.96  2.87 311.3  3.86 1.305  5.16 13472     9   935 12528  1933  5376  2982  0.24  1842  4023  3264   394 234.2 38.45  35.7 16377 .0182   705   199  1.20  0.98  80.3  18.0  6.14  0.00  0.00  0.00  0.00  0.00  0.00   2.0  0.00  0.01  0.00  0.00
 2023  81   202   119  20.2  -6.0 83.71 12.15  0.96  2.87 311.0  3.82 1.297  5.12 13779     9   938 12832  1931  5437  3197  0.25  1868  4238  3358   399 234.2 39.40  36.4 16377 .0195   690   198  1.20  0.98  75.4  16.5  5.67  0.00  0.00  0.00  0.00  0.00  0.00   2.0  0.00  0.02  0.00  0.00
 2023  82   203   120  19.6  -6.0 84.06 12.15  0.96  2.87 323.1  3.79 1.289  5.08 14099     9   941 13149  1930  5512  3405  0.26  1899  4446  3471   403 234.2 40.32  37.2 16377 .0208   677   197  1.20  0.98  70.4  15.1  4.79  0.00  0.00  0.00  0.00  0.00  0.00   2.0  0.00  0.00  0.00  0.00
 2023  83   204   121  17.6  -6.0 84.37 12.15  0.96  2.87 344.9  3.77 1.282  5.05 14440     9   944 13487  1928  5617  3592  0.27  1943  4633  3626   407 234.2 41.14  38.2 16377 .0219   665   195  1.20  0.98  65.3  13.7  3.42  0.00  0.00  0.00  0.00  0.00  0.00   2.0  0.00  0.00  0.00  0.00
 2023  84   205   122  17.1  -6.0 84.68 12.15  0.96  2.87 330.8  3.74 1.275  5.02 14767     9   948 13811  1927  5715  3773  0.27  1985  4814  3772   411 234.2 41.95  39.2 16377 .0230   654   194  1.20  0.98  60.5  13.3  2.63  0.00  0.00  0.00  0.00  0.00  0.00   2.0  0.00  0.00  0.00  0.00
 2023  85   206   123  17.5  -6.0 84.99 12.15  0.96  2.87 333.2  3.72 1.268  4.99 15097     9   951 14138  1925  5813  3959  0.28  2026  5000  3917   415 234.2 42.78  40.1 16377 .0242   644   193  1.20  0.98  55.5  11.9  1.87  0.00  0.00  0.00  0.00  0.00  0.00   2.0  0.00  0.00  0.00  0.00
 2023  86   207   124  17.5  -6.0 85.30 12.15  0.96  2.87 258.6  3.69 1.261  4.96 15353     9   953 14391  1923  5859  4145  0.29  2045  5186  3988   419 234.2 43.61  40.6 16377 .0253   633   192  1.20  0.98  87.2  24.2  1.76  0.00  0.00  0.00  0.00  0.00  0.00   2.0  0.00  0.00  0.00  0.00
 2023  87   208   125  18.8  -6.0 85.63 12.15  0.95  2.87 310.6  3.53 1.254  4.78 15660     9   956 14696  1849  5942  4344  0.30  2095  5385  4141   466 234.2 44.51  41.9 16377 .0265   623   191  1.20  0.98  82.4  18.5  5.55  0.00  0.00  0.00  0.00  0.00  0.00   2.0  0.00  0.00  0.00  0.00
 2023  88   209   126  18.0  -6.0 85.95 12.15  0.95  2.87 319.5  3.36 1.248  4.61 15976     9   959 15009  1769  6037  4535  0.30  2151  5576  4313   516 234.2 45.37  43.3 16377 .0277   613   190  1.20  0.98  77.5  17.2  6.19  0.00  0.00  0.00  0.00  0.00  0.00   2.0  0.00  0.00  0.00  0.00
 2023  89   210   127  19.3  -6.0 86.29 12.15  0.94  2.87 312.9  3.19 1.241  4.43 16286     9   962 15315  1692  6118  4740  0.31  2200  5781  4463   565 234.2 46.29  44.6 16377 .0289   603   189  1.20  0.98  72.6  16.1  5.65  0.00  0.00  0.00  0.00  0.00  0.00   2.0  0.00  0.00  0.00  0.00
[...]
 2023  36   157    64  18.1  -6.0 32.65  7.64  0.53  0.69  31.3  1.18 0.148  1.32   870    15   164   691   410   280     0  0.00     0     0    55     0 127.7 2.603   8.0     0     0   553   287  0.95  0.75  41.5  24.5  0.34  1.00  0.66  0.74  0.00  0.00  0.00   2.0  0.00  0.00  0.00  0.00
 2023  37   158    65  16.7  -6.0 33.45  7.75  0.54  0.73  32.1  1.20 0.152  1.35   894    15   169   709   419   290     0  0.00     0     0    57     0 133.3 2.741   8.1     0     0   553   286  0.96  0.76  41.9  26.4  0.36  1.00  0.64  0.73  0.00  0.00  0.00   2.0  0.00  0.00  0.00  0.00
 2023  38   159    66  16.2  -6.0 34.22  7.86  0.55  0.67  32.3  1.22 0.156  1.37   917    15   174   728   428   300     0  0.00     0     0    60     0 139.0 2.878   8.2     0     0   553   285  0.97  0.76  42.2  24.7  0.33  1.00  0.67  0.75  0.00  0.00  0.00   2.0  0.00  0.00  0.00  0.00
 2023  39   160    67  18.1  -6.0 35.08  7.98  0.55  0.60  30.3  1.24 0.159  1.40   938    15   178   745   436   309     0  0.00     0     0    62     0 144.9 3.035   8.3     0     0   553   283  0.98  0.76  42.7  22.8  0.29  1.00  0.71  0.77  0.00  0.00  0.00   2.0  0.00  0.00  0.00  0.00
 2023  40   161    68  15.1  -6.0 35.80  8.08  0.56  0.62  31.5  1.25 0.163  1.42   961    15   182   763   444   319     0  0.00     0     0    65     0 150.8 3.169   8.5     0     0   553   282  1.00  0.76  43.0  23.8  0.30  1.00  0.70  0.77  0.00  0.00  0.00   2.0  0.00  0.00  0.00  0.00
 2023  41   162    69  17.1  -6.0 36.62  8.19  0.56  0.66  29.8  1.27 0.167  1.44   981    15   186   780   451   329     0  0.00     0     0    67     0 156.8 3.325   8.6     0     0   553   281  1.01  0.77  43.4  25.9  0.32  1.00  0.68  0.75  0.00  0.00  0.00   2.0  0.00  0.00  0.00  0.00
 2023  42   163    70  14.0  -6.0 37.28  8.29  0.57  1.92  31.9  1.31 0.174  1.49  1011    15   189   806   469   337     0  0.00     0     0    64     0 156.8 3.456   7.9     0     0   553   280  1.02  0.83  43.6  77.7  0.94  0.13  0.06  0.28  0.00  0.00  0.00   2.0  0.00  0.00  0.00  0.00
 2023  43   164    71  15.7  -6.0 38.03  8.39  0.58  0.63  29.9  1.32 0.177  1.50  1032    15   193   823   475   348     0  0.00     0     0    67     0 163.2 3.604   8.1     0     0   552   279  1.03  0.77  44.0  26.2  0.31  1.00  0.69  0.76  0.00  0.00  0.00   2.0  0.00  0.00  0.00  0.00
 2023  44   165    72  13.9  -6.0 38.69  8.48  0.58  0.96  30.9  1.34 0.181  1.52  1053    15   197   841   481   360     0  0.00     0     0    70     0 169.5 3.739   8.3     0     0   550   277  1.04  0.79  44.2  40.8  0.47  1.00  0.53  0.64  0.00  0.00  0.00   2.0  0.00  0.00  0.00  0.00
 2023  45   166    73  13.7  -6.0 39.35  8.57  0.58  0.62  30.1  1.35 0.184  1.53  1074    15   201   858   487   371     0  0.00     0     0    72     0 176.0 3.874   8.4     0     0   548   276  1.05  0.78  44.5  27.0  0.30  1.00  0.70  0.77  0.00  0.00  0.00   2.0  0.00  0.00  0.00  0.00
 2023  46   167    74  14.2  -6.0 40.02  8.67  0.59  0.59  29.7  1.36 0.187  1.54  1095    15   205   875   493   382     0  0.00     0     0    75     0 182.5 4.016   8.6     0     0   547   275  1.06  0.78  45.8  26.9  0.29  1.00  0.71  0.78  0.00  0.00  0.00   2.0  0.00  0.00  0.00  0.00
 2023  47   168    75  14.1  -6.0 40.73  8.67  0.58  0.78  43.3  1.32 0.189  1.51  1134    15   210   908   480   419     0  0.00     0     0    94     9 182.5 4.161  10.5     0     0   545   274  1.07  0.78  45.1  23.7  0.27  1.00  0.73  0.80  0.00  0.00  0.00   2.0  0.00  0.00  0.00  0.00
 2023  48   169    76  12.8  -6.0 41.37  8.67  0.57  1.08  42.6  1.28 0.191  1.47  1173    15   216   942   469   456     0  0.00     0     0   113    17 182.5 4.295  12.2     0     0   544   274  1.08  0.79  45.3  34.3  0.37  1.00  0.63  0.72  0.00  0.00  0.00   2.0  0.00  0.00  0.00  0.00
 2023  49   170    77  17.4  -6.0 42.24  8.67  0.55  1.14  39.4  1.24 0.192  1.44  1209    15   220   973   456   491     0  0.00     0     0   131    27 182.5 4.483  13.9     0     0   542   273  1.09  0.80  51.6  41.4  0.39  1.00  0.61  0.70  0.00  0.00  0.00   2.0  0.00  0.00  0.00  0.00
 2023  50   171    78  18.8  -6.0 43.18  8.67  0.55  2.92  86.7  1.23 0.204  1.43  1291    15   227  1048   452   566     0  0.00     0     0   157    30 182.5 4.690  15.4     0     0   540   272  1.11  0.86  50.3  44.8  1.09  0.00  0.00  0.16  0.00  0.00  0.00   2.0  0.00  0.00  0.00  0.00
 2023  51   172    79  18.3  -6.0 44.09  8.67  0.54  1.48  53.9  1.19 0.208  1.40  1340    15   233  1092   440   613     0  0.00     0     0   179    39 182.5 4.898  17.0     0     0   539   271  1.12  0.82  49.2  36.3  0.51  0.98  0.49  0.61  0.00  0.00  0.00   2.0  0.00  0.00  0.00  0.00
 2023  52   173    80  16.3  -6.0 44.91  8.67  0.53  1.56  51.3  1.16 0.211  1.37  1388    15   238  1134   428   659     0  0.00     0     0   200    47 182.5 5.088  18.4     0     0   537   270  1.13  0.82  49.3  42.5  0.53  0.93  0.47  0.59  0.00  0.00  0.00   2.0  0.00  0.00  0.00  0.00
 2023  53   174    81  15.3  -6.0 45.68  8.67  0.52  0.95  50.3  1.12 0.214  1.34  1434    15   244  1175   417   702     0  0.00     0     0   221    55 182.5 5.271  19.7     0     0   536   269  1.14  0.81  49.5  27.0  0.32  1.00  0.68  0.75  0.00  0.00  0.00   2.0  0.00  0.00  0.00  0.00
 2023  54   175    82  16.1  -6.0 46.48  8.67  0.51  0.92  47.9  1.09 0.217  1.31  1478    15   249  1214   406   745     0  0.00     0     0   240    63 182.5 5.468  20.9     0     0   535   269  1.15  0.81  49.8  26.8  0.31  1.00  0.69  0.76  0.00  0.00  0.00   2.0  0.00  0.00  0.00  0.00
 2023  55   176    83  13.1  -6.0 47.14  8.67  0.50  1.52  50.1  1.06 0.221  1.28  1525    15   254  1255   395   789     0  0.00     0     0   260    71 182.5 5.632  22.0     0     0   535   268  1.16  0.83  49.9  45.5  0.52  0.96  0.48  0.60  0.00  0.00  0.00   2.0  0.00  0.00  0.00  0.00
 2023  56   177    84  15.6  -6.0 47.92  8.67  0.49  1.46  46.6  1.03 0.224  1.25  1568    15   258  1294   384   832     0  0.00     0     0   280    79 182.5 5.830  23.0     0     0   534   267  1.18  0.84  50.1  44.9  0.50  1.00  0.50  0.61  0.00  0.00  0.00   2.0  0.00  0.00  0.00  0.00
 2023  57   178    85  17.0  -6.0 48.77  8.67  0.48  0.88  44.8  0.99 0.227  1.22  1610    15   263  1331   373   872     0  0.00     0     0   299    87 182.5 6.049  24.0     0     0   533   266  1.19  0.82  50.4  27.8  0.30  1.00  0.70  0.77  0.00  0.00  0.00   2.0  0.00  0.00  0.00  0.00
 2023  58   179    86  16.0  -6.0 49.57  8.67  0.47  0.90  44.6  0.96 0.230  1.19  1651    15   268  1368   362   895     0  0.00    17    17   317    94 182.5 6.260  24.9     0     0   533   266  1.20  0.82  50.7  28.9  0.31  1.00  0.69  0.76  0.00  0.00  0.00   2.0  0.00  0.00  0.00  0.00
 2023  59   180    87  16.1  -6.0 51.93  8.67  0.45  1.02  43.7  0.93 0.233  1.17  1691    15   272  1404   352   909     0  0.00    42    33   335   101 182.5 6.475  25.7     0     0   532   265  1.20  0.83  50.3  32.9  0.35  1.00  0.65  0.73  0.00  0.00  0.00   2.0  0.00  0.00  0.00  0.00
 2023  60   181    88  12.6  -6.0 55.17  8.67  0.45  2.92  41.9  0.93 0.239  1.17  1732    15   274  1442   351   921     0  0.00    68    51   348   103 182.5 6.647  26.0     0     0   532   264  1.20  0.91  49.8  99.9  1.13  0.00  0.00  0.13  0.00  0.00  0.00   2.0  0.00  0.00  0.00  0.00
 2023  61   182    89  14.6  -6.0 58.93  8.67  0.44  0.91  44.5  0.90 0.244  1.15  1773    15   278  1480   343   935     0  0.00    94    68   365   108 182.5 6.848  26.6     0     0   531   264  1.20  0.85  49.2  29.8  0.31  1.00  0.69  0.76  0.00  0.00  0.00   2.0  0.00  0.00  0.00  0.00
 2023  62   183    90  14.9  -6.0 68.25  8.67  0.44  0.88  43.1  0.88 0.249  1.13  1813    15   281  1517   335   948     0  0.00   120    84   382   114 182.5 7.055  27.2     0     0   531   263  1.20  0.85  48.7  28.7  0.30  1.00  0.70  0.77  0.00  0.00  0.00   2.0  0.00  0.00  0.00  0.00
 2023  63   184    91  14.5  -6.0 70.59  8.67  0.43  0.87  42.2  0.86 0.253  1.11  1853    15   285  1553   327   961     0  0.00   146   101   398   120 182.5 7.258  27.8     0     0   530   262  1.20  0.86  48.2  28.7  0.30  1.00  0.70  0.77  0.00  0.00  0.00   2.0  0.00  0.00  0.00  0.00
 2023  64   185    92  15.5  -6.0 71.33  8.67  0.42  0.84  40.4  0.83 0.258  1.09  1891    15   287  1588   319   971     2  0.00   171   119   412   125 182.5 7.479  28.2  3698 .0001   530   262  1.20  0.87  47.7  27.8  0.29  1.00  0.71  0.78  0.00  0.00  0.00   2.0  0.00  0.00  0.00  0.00
 2023  65   186    93  16.9  -6.0 72.14  8.67  0.41  0.85  38.7  0.81 0.262  1.07  1928    15   290  1623   311   978     8  0.00   195   140   422   131 182.5 7.721  28.5  3698 .0002   530   261  1.20  0.88  47.2  28.5  0.29  1.00  0.71  0.78  0.00  0.00  0.00   2.0  0.00  0.00  0.00  0.00
 2023  66   187    94  16.9  -6.0 72.95  8.67  0.40  1.10  38.0  0.79 0.267  1.06  1964    15   292  1657   303   983    17  0.01   218   165   429   136 182.5 7.966  28.5  3698 .0005   530   261  1.20  0.90  46.7  37.0  0.38  1.00  0.62  0.71  0.00  0.00  0.00   2.0  0.00  0.00  0.00  0.00
 2023  67   188    95  18.4  -6.0 73.84  8.67  0.39  0.91  36.2  0.77 0.271  1.04  1999    15   294  1690   295   983    30  0.02   239   194   431   142 182.5 8.234  28.4  3698 .0008   529   260  1.20  0.91  46.2  31.1  0.31  1.00  0.69  0.76  0.00  0.00  0.00   2.0  0.00  0.00  0.00  0.00
 2023  68   189    96  19.7  -6.0 74.78  8.67  0.38  0.81  34.4  0.74 0.269  1.01  2032    15   295  1722   287   986    49  0.03   251   213   449   147 182.5 8.523  29.5  3698 .0013   529   259  1.20  0.92  45.7  28.1  0.28  1.00  0.72  0.79  0.00  0.00  0.00   2.0  0.00  0.00  0.00  0.00
 2023  69   190    97  19.4  -6.0 75.72  8.67  0.37  0.78  33.8  0.72 0.267  0.99  2065    15   296  1753   280   994    73  0.04   255   236   463   152 182.5 8.809  30.3  3698 .0020   529   258  1.20  0.93  45.2  27.4  0.27  1.00  0.73  0.79  0.00  0.00  0.00   2.0  0.00  0.00  0.00  0.00
 2023  70   191    98  19.6  -6.0 76.66  8.67  0.37  0.79  32.9  0.70 0.265  0.97  2096    15   297  1784   272   997   101  0.06   257   264   471   158 182.5 9.100  30.9  3698 .0027   529   258  1.20  0.95  44.8  28.1  0.27  1.00  0.73  0.79  0.00  0.00  0.00   2.0  0.00  0.00  0.00  0.00
 2023  71   192    99  22.8  -6.0 77.76  8.67  0.36  0.75  30.2  0.68 0.263  0.94  2126    15   297  1813   264   991   139  0.08   256   302   467   163 182.5 9.438  30.9  3698 .0037   528   257  1.20  0.96  44.3  27.0  0.26  1.00  0.74  0.80  0.00  0.00  0.00   2.0  0.00  0.18  0.00  0.00
 2023  72   193   100  22.0  -6.0 78.81  8.67  0.35  0.74  30.0  0.66 0.262  0.92  2155    15   297  1842   257   981   181  0.10   254   345   459   168 182.5 9.765  30.8  3698 .0049   528   256  1.20  0.97  43.9  27.3  0.25  1.00  0.75  0.80  0.00  0.00  0.00   2.0  0.00  0.13  0.00  0.00
 2023  73   194   101  19.8  -6.0 79.77  8.67  0.34  0.75  30.2  0.64 0.260  0.90  2185    15   297  1872   250   971   225  0.12   253   388   450   173 182.5 10.06  30.5  3698 .0061   527   255  1.20  0.98  43.5  28.1  0.26  1.00  0.74  0.80  0.00  0.00  0.00   2.0  0.00  0.00  0.00  0.00
 2023  74   195   102  19.5  -6.0 80.27  8.67  0.33  0.86  29.6  0.62 0.258  0.88  2214    15   298  1901   243   958   272  0.14   250   436   436   178 182.5 10.35  30.1  3698 .0074   527   254  1.20  0.98  43.1  32.6  0.29  1.00  0.71  0.77  0.00  0.00  0.00   2.0  0.00  0.00  0.00  0.00
 2023  75   196   103  20.5  -6.0 80.64  8.67  0.32  0.92  28.5  0.60 0.257  0.86  2242    15   298  1929   238   940   325  0.17   245   488   416   182 182.5 10.65  29.2  3698 .0088   527   254  1.20  0.98  42.7  35.8  0.32  1.00  0.68  0.76  0.00  0.00  0.00   2.0  0.00  0.03  0.00  0.00
 2023  76   197   104  20.0  -6.0 81.01  8.67  0.32  2.20  28.5  0.60 0.255  0.86  2270    15   298  1957   237   922   376  0.19   240   539   393   182 182.5 10.95  28.1  3698 .0102   526   253  1.20  0.98  53.5  99.9  0.75  0.50  0.25  0.42  0.00  0.00  0.00   2.0  0.00  0.00  0.00  0.00
 2023  77   198   105  19.0  -6.0 81.35  8.67  0.32  2.92 102.9  0.60 0.254  0.85  2372    15   299  2058   237   962   424  0.21   252   587   446   183 182.5 11.24  30.8  3698 .0115   526   252  1.20  0.98  79.3  58.8  2.17  0.00  0.00  0.00  0.00  0.00  0.00   2.0  0.00  0.00  0.00  0.00
 2023  78   199   106  19.0  -6.0 81.70  8.67  0.32  2.92 107.8  0.60 0.252  0.85  2478    15   300  2163   237  1006   473  0.22   265   636   504   183 182.5 11.52  33.4  3698 .0128   526   251  1.20  0.98  75.5  53.6  5.16  0.00  0.00  0.00  0.00  0.00  0.00   2.0  0.00  0.00  0.00  0.00
 2023  79   200   107  19.0  -6.0 82.05  8.67  0.32  2.92 106.5  0.59 0.251  0.84  2584    15   301  2268   237  1048   521  0.23   277   684   560   184 182.5 11.81  35.8  3698 .0141   526   251  1.20  0.98  74.0  54.1  5.39  0.00  0.00  0.00  0.00  0.00  0.00   2.0  0.00  0.00  0.00  0.00
 2023  80   201   108  20.1  -6.0 82.42  8.67  0.32  2.92 105.3  0.59 0.249  0.84  2688    15   302  2371   237  1088   572  0.24   289   736   613   184 182.5 12.11  38.0  3698 .0155   526   250  1.20  0.98  72.5  53.4  5.37  0.00  0.00  0.00  0.00  0.00  0.00   2.0  0.00  0.01  0.00  0.00
 2023  81   202   109  20.2  -6.0 82.78  8.67  0.32  2.92 105.0  0.59 0.248  0.84  2792    15   302  2474   236  1128   624  0.25   301   787   665   185 182.5 12.41  39.9  3698 .0169   526   249  1.20  0.98  71.0  51.1  4.41  0.00  0.00  0.00  0.00  0.00  0.00   2.0  0.00  0.02  0.00  0.00
 2023  82   203   110  19.6  -6.0 83.14  8.67  0.32  2.92 108.8  0.59 0.247  0.83  2899    15   304  2580   236  1171   674  0.26   314   837   722   186 182.5 12.71  41.9  3698 .0182   526   248  1.20  0.98  69.5  49.3  3.65  0.00  0.00  0.00  0.00  0.00  0.00   2.0  0.00  0.00  0.00  0.00
 2023  83   204   111  17.6  -6.0 83.46  8.67  0.32  2.92 115.9  0.58 0.245  0.83  3014    15   305  2694   236  1224   719  0.27   330   882   791   186 182.5 12.98  44.2  3698 .0194   526   248  1.20  0.98  67.9  47.0  3.08  0.00  0.00  0.00  0.00  0.00  0.00   2.0  0.00  0.00  0.00  0.00
 2023  84   205   112  17.1  -6.0 83.78  8.67  0.32  2.92 110.9  0.58 0.244  0.83  3124    15   306  2803   236  1274   762  0.27   344   925   857   187 182.5 13.24  46.2  3698 .0206   526   247  1.20  0.98  66.5  48.5  2.88  0.00  0.00  0.00  0.00  0.00  0.00   2.0  0.00  0.00  0.00  0.00
 2023  85   206   113  17.5  -6.0 84.09  8.67  0.31  2.92 111.6  0.58 0.243  0.82  3234    15   307  2912   236  1323   807  0.28   359   970   922   187 182.5 13.50  48.1  3698 .0218   526   246  1.20  0.98  65.0  46.4  2.42  0.00  0.00  0.00  0.00  0.00  0.00   2.0  0.00  0.00  0.00  0.00
 2023  86   207   114  17.5  -6.0 84.41  8.67  0.31  2.92  86.4  0.58 0.242  0.82  3320    15   308  2997   235  1354   851  0.28   368  1015   962   187 182.5 13.77  49.2  3698 .0230   526   246  1.20  0.98  63.8  58.8  2.67  0.00  0.00  0.00  0.00  0.00  0.00   2.0  0.00  0.00  0.00  0.00
 2023  87   208   115  18.8  -6.0 84.76  8.67  0.31  2.92 103.6  0.58 0.241  0.82  3422    15   308  3098   235  1395   899  0.29   381  1062  1017   188 182.5 14.06  50.6  3698 .0243   526   245  1.20  0.98  62.4  46.7  1.93  0.00  0.00  0.00  0.00  0.00  0.00   2.0  0.00  0.00  0.00  0.00
 2023  88   209   116  18.0  -6.0 85.09  8.67  0.31  2.92 107.0  0.57 0.240  0.81  3528    15   309  3203   235  1440   945  0.30   394  1108  1076   188 182.5 14.34  52.0  3698 .0256   526   245  1.20  0.98  61.0  44.7  1.64  0.00  0.00  0.00  0.00  0.00  0.00   2.0  0.00  0.00  0.00  0.00
 2023  89   210   117  19.3  -6.0 85.44  8.67  0.31  2.92 105.3  0.57 0.238  0.81  3632    15   310  3306   235  1482   994  0.30   407  1157  1131   189 182.5 14.64  53.3  3698 .0269   526   244  1.20  0.98  59.6  43.4  1.43  0.00  0.00  0.00  0.00  0.00  0.00   2.0  0.00  0.00  0.00  0.00
 2023  90   211   118  18.7  -6.0 85.78  8.67  0.30  2.92 115.8  0.54 0.237  0.78  3747    15   312  3420   222  1535  1042  0.30   424  1205  1205   197 182.5 14.93  55.2  3698 .0282   526   243  1.20  0.98  58.0  39.1  1.16  0.00  0.00  0.11  0.00  0.00  0.00   2.0  0.00  0.00  0.00  0.00
 2023  91   212   119  19.4  -6.0 86.13  8.67  0.28  2.92 107.3  0.51 0.236  0.74  3853    15   313  3525   209  1580  1091  0.31   440  1254  1268   205 182.5 15.23  56.9  3698 .0295   526   243  1.20  0.98  56.6  40.3  1.07  0.00  0.00  0.18  0.00  0.00  0.00   2.0  0.00  0.00  0.00  0.00
 2023  92   213   120  20.8  -6.0 86.51  8.67  0.27  2.90  98.7  0.47 0.235  0.71  3950    15   313  3622   196  1616  1144  0.32   452  1307  1320   213 182.5 15.56  58.3  3698 .0309   526   242  1.20  0.98  55.2  41.4  0.99  0.02  0.01  0.24  0.00  0.00  0.00   2.0  0.00  0.06  0.00  0.00
 2023  93   214   121  18.6  -6.0 86.85  8.67  0.25  2.92  89.7  0.44 0.234  0.67  4039    15   314  3710   182  1650  1192  0.32   464  1355  1369   222 182.5 15.85  59.6  3698 .0322   526   241  1.20  0.98  54.0  46.7  1.02  0.00  0.00  0.22  0.00  0.00  0.00   2.0  0.00  0.00  0.00  0.00
 2023  94   215   122  17.1  -6.0 87.16  8.67  0.23  2.76  87.0  0.41 0.233  0.64  4125    15   315  3795   169  1684  1235  0.33   476  1398  1419   229 182.5 16.12  60.9  3698 .0334   526   241  1.20  0.98  52.9  46.6  0.94  0.11  0.06  0.27  0.00  0.00  0.00   2.0  0.00  0.00  0.00  0.00
 2023  95   216   123  15.9  -6.0 87.45  8.67  0.22  2.80  81.6  0.38 0.232  0.61  4206    15   316  3875   158  1717  1275  0.33   488  1438  1466   237 182.5 16.37  62.0  3698 .0345   526   240  1.20  0.98  51.9  50.8  0.96  0.08  0.04  0.26  0.00  0.00  0.00   2.0  0.00  0.00  0.00  0.00
 2023  96   217   124  15.9  -6.0 87.74  8.67  0.20  2.60  74.3  0.35 0.231  0.58  4279    15   316  3947   147  1744  1315  0.33   498  1479  1505   243 182.5 16.62  63.0  3698 .0356   526   240  1.20  0.98  50.9  50.1  0.89  0.22  0.11  0.32  0.00  0.00  0.00   2.0  0.00  0.00  0.00  0.00
 2023  97   218   125  17.3  -6.0 88.06  8.67  0.19  2.51  67.1  0.32 0.230  0.55  4345    15   317  4013   136  1763  1360  0.34   505  1523  1533   250 182.5 16.89  63.8  3698 .0368   526   239  1.20  0.98  50.0  51.0  0.86  0.28  0.14  0.34  0.00  0.00  0.00   2.0  0.00  0.00  0.00  0.00
 2023  98   219   126  19.2  -6.0 88.41  8.67  0.17  2.39  60.2  0.29 0.228  0.52  4405    15   317  4072   124  1768  1408  0.35   511  1572  1551   261 182.5 17.19  64.5  3698 .0381   526   239  1.20  0.98  49.2  51.2  0.82  0.36  0.18  0.37  0.00  0.00  0.00   2.0  0.00  0.00  0.00  0.00
 2023  99   220   127  20.0  -6.0 88.77  8.67  0.16  2.39  55.6  0.26 0.226  0.49  4460    15   318  4127   110  1768  1459  0.35   517  1623  1562   272 182.5 17.51  65.2  3698 .0395   526   238  1.20  0.98  48.5  53.6  0.82  0.37  0.18  0.37  0.00  0.00  0.00   2.0  0.00  0.00  0.00  0.00
 2023 100   221   128  19.5  -6.0 89.13  8.67  0.14  2.73  53.0  0.23 0.224  0.45  4512    15   318  4179    96  1767  1509  0.36   522  1672  1573   284 182.5 17.82  65.9  3698 .0408   526   237  1.20  0.98  47.7  63.8  0.93  0.13  0.07  0.28  0.00  0.00  0.00   2.0  0.00  0.00  0.00  0.00
 2023 101   222   129  21.5  -6.0 89.52  8.67  0.12  2.74  48.4  0.19 0.222  0.42  4560    15   318  4226    82  1758  1564  0.37   526  1727  1573   297 182.5 18.16  66.5  3698 .0423   526   237  1.20  0.98  47.0  66.6  0.94  0.13  0.06  0.28  0.00  0.00  0.00   2.0  0.00  0.10  0.00  0.00
 2023 102   223   130  20.7  -6.0 89.90  8.67  0.10  2.92  44.3  0.16 0.220  0.38  4603    15   318  4269    67  1748  1616  0.38   529  1780  1573   309 182.5 18.49  67.1  3698 .0437   526   236  1.20  0.98  46.4  78.6  1.06  0.00  0.00  0.18  0.00  0.00  0.00   2.0  0.00  0.04  0.00  0.00
 2023 103   224   131  20.1  -6.0 90.73  8.67  0.08  2.92  30.7  0.12 0.219  0.34  4633    15   318  4300    52  1757  1631  0.38   537  1794  1597   322 182.5 18.81  68.1  3698 .0441   526   235  1.20  0.98  46.0  99.9  1.51  0.00  0.00  0.00  0.00  0.00  0.00   2.0  0.00  0.01  0.00  0.00
