*SIMULATION OVERVIEW FILE
  

*DSSAT Cropping System Model Ver. 4.8.2.000 -release  JUN 25, 2025 11:08:18

*RUN   1        : WW23_G-1                  CSCER048 CIOB2301    1
 MODEL          : CSCER048 - Wheat
 EXPERIMENT     : CIOB2301 WH ROOTS ANATOMY
 DATA PATH      : C:\DSSAT48\Wheat\
 TREATMENT  1   : WW23_G-1                  CSCER048


 CROP           : Wheat            CULTIVAR : ENTRY 1          ECOTYPE :CI0801
 STARTING DATE  : SEP  1 2022
 PLANTING DATE  : NOV 23 2022      PLANTS/m2 :   137.0    ROW SPACING :  20.cm
 WEATHER        : CIOB   2022
 SOIL           : CCENEB2301     TEXTURE : C     -   CIMMYT CENEB 710
 SOIL INIT COND : DEPTH:120cm EXTR. H2O: 82.8mm  NO3:484.0kg/ha  NH4:341.8kg/ha
 WATER BALANCE  : IRRIGATE ON REPORTED DATE(S)
 IRRIGATION     :      525 mm IN     9 APPLICATIONS
 NITROGEN BAL.  : SOIL-N & N-UPTAKE SIMULATION; NO N-FIXATION
 N-FERTILIZER   :      323 kg/ha IN     3 APPLICATIONS
 RESIDUE/MANURE : INITIAL :     0 kg/ha ;    2222 kg/ha IN     1 APPLICATIONS
 ENVIRONM. OPT. : DAYL=    0.00  SRAD=    0.00  TMAX=    0.00  TMIN=    0.00
                  RAIN=    0.00  CO2 =    0.00  DEW =    0.00  WIND=    0.00
 SIMULATION OPT : WATER   :Y  NITROGEN:Y  N-FIX:N  PHOSPH :N  PESTS  :N
                  PHOTO   :C  ET      :R  INFIL:S  HYDROL :R  SOM    :G
                  CO2 418ppm  NSWIT   :1  EVAP :R  SOIL   :2  STEMP  :D
 MANAGEMENT OPT : PLANTING:R  IRRIG   :R  FERT :R  RESIDUE:R  HARVEST:M
                  WEATHER :M  TILLAGE :Y

*SUMMARY OF SOIL AND GENETIC INPUT PARAMETERS

   SOIL LOWER UPPER   SAT  EXTR  INIT   ROOT   BULK     pH    NO3    NH4    ORG
  DEPTH LIMIT LIMIT    SW    SW    SW   DIST   DENS                          C
   cm   cm3/cm3    cm3/cm3    cm3/cm3         g/cm3         ugN/g  ugN/g     %
-------------------------------------------------------------------------------
  0-  5 0.143 0.204 0.268 0.061 0.172   1.00   1.35   8.50  29.00  29.00   1.08
  5- 15 0.143 0.204 0.268 0.061 0.172   1.00   1.35   8.50  29.00  29.00   1.08
 15- 30 0.143 0.204 0.268 0.061 0.172   1.00   1.35   8.50  29.00  29.00   1.08
 30- 45 0.166 0.234 0.274 0.068 0.225   0.41   1.58   8.50  27.00  16.00   0.80
 45- 60 0.166 0.234 0.274 0.068 0.225   0.41   1.58   8.50  27.00  16.00   0.80
 60- 90 0.155 0.227 0.276 0.072 0.207   0.22   1.50   7.90  53.00  33.00   0.87
 90-120 0.188 0.263 0.308 0.075 0.263   0.12   1.38   8.00   0.01   0.01   0.40

TOT-120  19.6  27.8  33.8   8.3  26.0  <--cm   -  kg/ha-->  484.0  341.8 137370
SOIL ALBEDO    : 0.13      EVAPORATION LIMIT : 6.00         MIN. FACTOR  : 1.00
RUNOFF CURVE # :61.00      DRAINAGE RATE     : 0.60         FERT. FACTOR : 1.00

 Wheat            CULTIVAR: 555175-ENTRY 1            ECOTYPE: CI0801
   P1V   P1D    P5    G1    G2    G3 PHINT
   2.0  41.4 556.5  21.0  47.0  4.13 103.3


*SIMULATED CROP AND SOIL STATUS AT MAIN DEVELOPMENT STAGES
  
 RUN NO.      1   ROOTS ANATOMY                                               

 ...... DATE ......  GROWTH STAGE BIOMASS   LEAF       CROP N      STRESS
 YEARDOY DOM MON DAP ............. kg/ha AREA NUMBER  kg/ha   %   H2O    N
 2022327  23 Nov   0 7 Sowing         0  0.00   0.0     0   0.0  0.00  0.00
 2022328  24 Nov   1 8 Germinate      0  0.00   0.0     0   0.0  0.00  0.00
 2022330  26 Nov   3 9 Emergence      0  0.00   0.0     0   0.0  0.00  0.00
 2023027  27 Jan  65 1 Term Spklt  1890  3.19  11.0    89   4.7  0.26  0.08
 2023045  14 Feb  83 2 End Veg     3850  5.66  13.7   129   3.4  0.04  0.00
 2023058  27 Feb  96 3 End Ear Gr  6113  4.75  13.7   126   2.1  0.00  0.00
 2023073  14 Mar 111 4 Beg Gr Fil  9347  3.80  13.7   125   1.3  0.10  0.00
 2023102  12 Apr 140 5 End Gr Fil 15948  0.83  13.7   189   1.2  0.12  0.00
 2023102  12 Apr 140 6 Harvest    15948  0.83  13.7   189   1.2  0.57  0.00
  
 BIOMASS = Above-ground dry wt (kg/ha)
 LEAF AREA  = Leaf area index (m2/m2)
 LEAF NUMBER  = Leaf number produced on main axis
 CROP N  = Above-ground N (kg/ha)
 CROP N% = Above-ground N conc (%)
 H2O STRESS = Photosynthesis stress,average (0-1,0=none)
 N STRESS = Photosynthesis stress,average (0-1,0=none)
  

*MAIN GROWTH AND DEVELOPMENT VARIABLES

@     VARIABLE                             SIMULATED     MEASURED
      --------                             ---------     --------
      Emergence (DAP)                            3            7
      Anthesis (DAP)                            99           97
      Maturity (DAP)                           140          140
      Product wt (kg dm/ha;no loss)           6805         6797
      Product unit weight (g dm)             0.047        0.047
      Product number (no/m2)                 14479        14451
      Product number (no/group)               23.6        -99.0
      Product harvest index (ratio)           0.43         0.43
      Maximum leaf area index                  5.7          5.7
      Final leaf number (one axis)            13.7        -99.0
      Final shoot number (#/m2)                612          -99
      Canopy (tops) wt (kg dm/ha)            15948        15757
      Vegetative wt (kg dm/ha)                9142         8960
      Root wt (kg dm/ha)                       941          -99
      Assimilate wt (kg dm/ha)               17811          -99
      Senesced wt (kg dm/ha)                   297          -99
      Reserves wt (kg dm/ha)                  4153          -99
      N uptake (kg/ha)                       207.8        -99.0
      N senesced (kg/ha)                       4.1        -99.0
      Above-ground N (kg/ha)                 188.6        -99.0
      Root N (kg/ha)                          15.8        -99.0
      Vegetative N (kg/ha)                    38.0        -99.0
      Product N (kg/ha)                      150.7        139.5
      Product N harvest index (ratio)         0.80       -99.00
      Product N (%)                            2.2          2.1
      Vegetative N (%)                         0.4        -99.0
      Leaf+stem wt,anthesis (kg dm/ha)        6642          -99
      Leaf+stem N,anthesis (kg/ha)           125.8        -99.0
      Leaf N,anthesis (%)                      3.0        -99.0

  Seed N must be added to N uptake to obtain a         
  balance with N in above-ground plus root material    

  Measured data are obtained from the A file,either    
  directly or by calculation from other other variables
  using the expressions given below:                   
                                                       
  Product wt       Harvest wt (HWAH) /                 
                               (Harvest%/100) (HPC)    
  Canopy wt        Grain wt (HWAM)+Vegetative wt (VWAm)
  Vegetative wt    Canopy wt (CWAM) - grain wt (HWAM)  
    = leaf+stem+retained dead material                 
  Product unit wt  Grain yield (HWAM)/Grain # (G#AM)   
  Product #/area   Product#/tiller (H#SM) *            
                                   tiller number (T#AM)
  Product #/group  Product#/area (H#AM) /              
                                tiller number (T#AM)   
  Harvest index    Product wt (HWAM)/Canopy wt.(CWAM)  
                                                       
  The same procedure is followed for nitrogen aspects  


*ENVIRONMENTAL AND STRESS FACTORS

 |-----Development Phase------|-------------Environment--------------|----------------Stress-----------------|
                              |--------Average-------|---Cumulative--|         (0=Min, 1=Max Stress)         |
                         Time  Temp  Temp Solar Photop         Evapo |----Water---|--Nitrogen--|--Phosphorus-|
                         Span   Max   Min   Rad  [day]   Rain  Trans  Photo         Photo         Photo
                         days    °C    °C MJ/m2     hr     mm     mm  synth Growth ' synth Growth  synth Growth
--------------------------------------------------------------------------------------------------------------
 Germinate  - Term Spklt   62  26.2   7.1  14.3  11.35   10.0   97.3  0.264  0.362  0.081  0.081 -99.00 -99.00
 Term Spklt - End Veg      18  25.5   5.7  15.6  11.76    0.1   53.2  0.042  0.089  0.000  0.000 -99.00 -99.00
 End Veg    - End Ear Gr   13  23.3   8.2  15.8  12.11   12.1   40.1  0.000  0.012  0.000  0.000 -99.00 -99.00
 End Ear Gr - Beg Gr Fil   15  28.1   7.0  20.4  12.46    0.1   57.3  0.102  0.155  0.000  0.000 -99.00 -99.00
 Beg Gr Fil - End Gr Fil   29  29.1   8.7  23.2  13.07   65.8  117.5  0.123  0.164  0.000  0.000 -99.00 -99.00
  
 Germinate  - End Gr Fil  137  26.7   7.4  17.2  11.96   88.1  365.3  0.162  0.228  0.037  0.037 -99.00 -99.00
--------------------------------------------------------------------------------------------------------------


*RESOURCE PRODUCTIVITY

 Growing season length: 137 days 

 Precipitation during growth season         88.1 mm[rain]
   Dry Matter Productivity                 18.10 kg[DM]/m3[rain]          =  181.0 kg[DM]/ha per mm[rain]
   Yield Productivity                       7.72 kg[grain yield]/m3[rain] =   77.2 kg[yield]/ha per mm[rain]

 Evapotranspiration during growth season   365.3 mm[ET]
   Dry Matter Productivity                  4.37 kg[DM]/m3[ET]            =   43.7 kg[DM]/ha per mm[ET]
   Yield Productivity                       1.86 kg[grain yield]/m3[ET]   =   18.6 kg[yield]/ha per mm[ET]

 Transpiration during growth season        300.8 mm[EP]
   Dry Matter Productivity                  5.30 kg[DM]/m3[EP]            =   53.0 kg[DM]/ha per mm[EP]
   Yield Productivity                       2.26 kg[grain yield]/m3[EP]   =   22.6 kg[yield]/ha per mm[EP]

 Irrigation during growing season          525.1 mm[irrig]
   Dry Matter Productivity                  3.04 kg[DM]/m3[irrig]         =   30.4 kg[DM]/ha per mm[irrig]
   Yield Productivity                       1.30 kg[grain yield]/m3[irrig]=   13.0 kg[yield]/ha per mm[irrig]

 N applied during growing season           323.0 kg[N applied]/ha
   Dry Matter Productivity                  49.4 kg[DM]/kg[N applied]
   Yield Productivity                       21.1 kg[yield]/kg[N applied]

 N uptake during growing season            207.8 kg[N uptake]/ha
   Dry Matter Productivity                  76.8 kg[DM]/kg[N uptake]
   Yield Productivity                       32.8 kg[yield]/kg[N uptake]

--------------------------------------------------------------------------------------------------------------

          WHEAT YIELD :     6805 kg/ha    [Dry weight] 

**************************************************************************************************************
  

*DSSAT Cropping System Model Ver. 4.8.2.000 -release  JUN 25, 2025 11:08:18

*RUN   2        : WW23_G-2                  CSCER048 CIOB2301    2
 MODEL          : CSCER048 - Wheat
 EXPERIMENT     : CIOB2301 WH ROOTS ANATOMY
 DATA PATH      : C:\DSSAT48\Wheat\
 TREATMENT  2   : WW23_G-2                  CSCER048


 CROP           : Wheat            CULTIVAR : ENTRY 2          ECOTYPE :CI0803
 STARTING DATE  : SEP  1 2022
 PLANTING DATE  : NOV 23 2022      PLANTS/m2 :   137.0    ROW SPACING :  20.cm
 WEATHER        : CIOB   2022
 SOIL           : CCENEB2301     TEXTURE : C     -   CIMMYT CENEB 710
 SOIL INIT COND : DEPTH:120cm EXTR. H2O: 82.8mm  NO3:484.0kg/ha  NH4:341.8kg/ha
 WATER BALANCE  : IRRIGATE ON REPORTED DATE(S)
 IRRIGATION     :      525 mm IN     9 APPLICATIONS
 NITROGEN BAL.  : SOIL-N & N-UPTAKE SIMULATION; NO N-FIXATION
 N-FERTILIZER   :      323 kg/ha IN     3 APPLICATIONS
 RESIDUE/MANURE : INITIAL :     0 kg/ha ;    2222 kg/ha IN     1 APPLICATIONS
 ENVIRONM. OPT. : DAYL=    0.00  SRAD=    0.00  TMAX=    0.00  TMIN=    0.00
                  RAIN=    0.00  CO2 =    0.00  DEW =    0.00  WIND=    0.00
 SIMULATION OPT : WATER   :Y  NITROGEN:Y  N-FIX:N  PHOSPH :N  PESTS  :N
                  PHOTO   :C  ET      :R  INFIL:S  HYDROL :R  SOM    :G
                  CO2 418ppm  NSWIT   :1  EVAP :R  SOIL   :2  STEMP  :D
 MANAGEMENT OPT : PLANTING:R  IRRIG   :R  FERT :R  RESIDUE:R  HARVEST:M
                  WEATHER :M  TILLAGE :Y

*SUMMARY OF SOIL AND GENETIC INPUT PARAMETERS

   SOIL LOWER UPPER   SAT  EXTR  INIT   ROOT   BULK     pH    NO3    NH4    ORG
  DEPTH LIMIT LIMIT    SW    SW    SW   DIST   DENS                          C
   cm   cm3/cm3    cm3/cm3    cm3/cm3         g/cm3         ugN/g  ugN/g     %
-------------------------------------------------------------------------------
  0-  5 0.143 0.204 0.268 0.061 0.172   1.00   1.35   8.50  29.00  29.00   1.08
  5- 15 0.143 0.204 0.268 0.061 0.172   1.00   1.35   8.50  29.00  29.00   1.08
 15- 30 0.143 0.204 0.268 0.061 0.172   1.00   1.35   8.50  29.00  29.00   1.08
 30- 45 0.166 0.234 0.274 0.068 0.225   0.41   1.58   8.50  27.00  16.00   0.80
 45- 60 0.166 0.234 0.274 0.068 0.225   0.41   1.58   8.50  27.00  16.00   0.80
 60- 90 0.155 0.227 0.276 0.072 0.207   0.22   1.50   7.90  53.00  33.00   0.87
 90-120 0.188 0.263 0.308 0.075 0.263   0.12   1.38   8.00   0.01   0.01   0.40

TOT-120  19.6  27.8  33.8   8.3  26.0  <--cm   -  kg/ha-->  484.0  341.8 137370
SOIL ALBEDO    : 0.13      EVAPORATION LIMIT : 6.00         MIN. FACTOR  : 1.00
RUNOFF CURVE # :61.00      DRAINAGE RATE     : 0.60         FERT. FACTOR : 1.00

 Wheat            CULTIVAR: 457793-ENTRY 2            ECOTYPE: CI0803
   P1V   P1D    P5    G1    G2    G3 PHINT
   2.0  38.6 543.0  22.5  44.0  7.86 150.0


*SIMULATED CROP AND SOIL STATUS AT MAIN DEVELOPMENT STAGES
  
 RUN NO.      2   ROOTS ANATOMY                                               

 ...... DATE ......  GROWTH STAGE BIOMASS   LEAF       CROP N      STRESS
 YEARDOY DOM MON DAP ............. kg/ha AREA NUMBER  kg/ha   %   H2O    N
 2022327  23 Nov   0 7 Sowing         0  0.00   0.0     0   0.0  0.00  0.00
 2022328  24 Nov   1 8 Germinate      0  0.00   0.0     0   0.0  0.00  0.00
 2022330  26 Nov   3 9 Emergence      0  0.00   0.0     0   0.0  0.00  0.00
 2023025  25 Jan  63 1 Term Spklt  1832  3.35   7.7    87   4.8  0.29  0.08
 2023043  12 Feb  81 2 End Veg     3774  5.96   9.6   126   3.3  0.04  0.00
 2023056  25 Feb  94 3 End Ear Gr  6292  5.06   9.6   123   2.0  0.00  0.00
 2023072  13 Mar 110 4 Beg Gr Fil 10447  4.05   9.6   121   1.2  0.09  0.00
 2023100  10 Apr 138 5 End Gr Fil 18472  0.82   9.6   198   1.1  0.07  0.00
 2023100  10 Apr 138 6 Harvest    18472  0.82   9.6   198   1.1  0.44  0.00
  

*MAIN GROWTH AND DEVELOPMENT VARIABLES

@     VARIABLE                             SIMULATED     MEASURED
      --------                             ---------     --------
      Emergence (DAP)                            3            7
      Anthesis (DAP)                            97           96
      Maturity (DAP)                           138          139
      Product wt (kg dm/ha;no loss)           7236         6933
      Product unit weight (g dm)             0.044        0.042
      Product number (no/m2)                 16446        16392
      Product number (no/group)               43.4        -99.0
      Product harvest index (ratio)           0.39         0.41
      Maximum leaf area index                  6.0          6.1
      Final leaf number (one axis)             9.6        -99.0
      Final shoot number (#/m2)                379          -99
      Canopy (tops) wt (kg dm/ha)            18472        16796
      Vegetative wt (kg dm/ha)               11235         9863
      Root wt (kg dm/ha)                       989          -99
      Assimilate wt (kg dm/ha)               20346          -99
      Senesced wt (kg dm/ha)                   230          -99
      Reserves wt (kg dm/ha)                  5731          -99
      N uptake (kg/ha)                       216.5        -99.0
      N senesced (kg/ha)                       3.1        -99.0
      Above-ground N (kg/ha)                 197.5        -99.0
      Root N (kg/ha)                          16.6        -99.0
      Vegetative N (kg/ha)                    39.1        -99.0
      Product N (kg/ha)                      158.4        142.3
      Product N harvest index (ratio)         0.80       -99.00
      Product N (%)                            2.2          2.1
      Vegetative N (%)                         0.3        -99.0
      Leaf+stem wt,anthesis (kg dm/ha)        7110          -99
      Leaf+stem N,anthesis (kg/ha)           122.1        -99.0
      Leaf N,anthesis (%)                      3.0        -99.0

*ENVIRONMENTAL AND STRESS FACTORS

 |-----Development Phase------|-------------Environment--------------|----------------Stress-----------------|
                              |--------Average-------|---Cumulative--|         (0=Min, 1=Max Stress)         |
                         Time  Temp  Temp Solar Photop         Evapo |----Water---|--Nitrogen--|--Phosphorus-|
                         Span   Max   Min   Rad  [day]   Rain  Trans  Photo         Photo         Photo
                         days    °C    °C MJ/m2     hr     mm     mm  synth Growth ' synth Growth  synth Growth
--------------------------------------------------------------------------------------------------------------
 Germinate  - Term Spklt   60  26.3   7.2  14.3  11.35   10.0   93.0  0.287  0.388  0.077  0.077 -99.00 -99.00
 Term Spklt - End Veg      18  25.7   5.6  15.7  11.73    0.1   53.4  0.045  0.095  0.000  0.000 -99.00 -99.00
 End Veg    - End Ear Gr   13  22.7   8.0  14.8  12.06   12.1   37.1  0.000  0.010  0.000  0.000 -99.00 -99.00
 End Ear Gr - Beg Gr Fil   16  27.6   7.0  20.3  12.42    0.1   60.8  0.092  0.141  0.000  0.000 -99.00 -99.00
 Beg Gr Fil - End Gr Fil   28  28.9   8.6  23.1  13.02   65.8  119.6  0.065  0.099  0.000  0.000 -99.00 -99.00
  
 Germinate  - End Gr Fil  135  26.6   7.3  17.1  11.94   88.1  363.9  0.158  0.223  0.034  0.034 -99.00 -99.00
--------------------------------------------------------------------------------------------------------------


*RESOURCE PRODUCTIVITY

 Growing season length: 135 days 

 Precipitation during growth season         88.1 mm[rain]
   Dry Matter Productivity                 20.97 kg[DM]/m3[rain]          =  209.7 kg[DM]/ha per mm[rain]
   Yield Productivity                       8.21 kg[grain yield]/m3[rain] =   82.1 kg[yield]/ha per mm[rain]

 Evapotranspiration during growth season   363.9 mm[ET]
   Dry Matter Productivity                  5.08 kg[DM]/m3[ET]            =   50.8 kg[DM]/ha per mm[ET]
   Yield Productivity                       1.99 kg[grain yield]/m3[ET]   =   19.9 kg[yield]/ha per mm[ET]

 Transpiration during growth season        304.1 mm[EP]
   Dry Matter Productivity                  6.07 kg[DM]/m3[EP]            =   60.7 kg[DM]/ha per mm[EP]
   Yield Productivity                       2.38 kg[grain yield]/m3[EP]   =   23.8 kg[yield]/ha per mm[EP]

 Irrigation during growing season          525.1 mm[irrig]
   Dry Matter Productivity                  3.52 kg[DM]/m3[irrig]         =   35.2 kg[DM]/ha per mm[irrig]
   Yield Productivity                       1.38 kg[grain yield]/m3[irrig]=   13.8 kg[yield]/ha per mm[irrig]

 N applied during growing season           323.0 kg[N applied]/ha
   Dry Matter Productivity                  57.2 kg[DM]/kg[N applied]
   Yield Productivity                       22.4 kg[yield]/kg[N applied]

 N uptake during growing season            216.5 kg[N uptake]/ha
   Dry Matter Productivity                  85.3 kg[DM]/kg[N uptake]
   Yield Productivity                       33.4 kg[yield]/kg[N uptake]

--------------------------------------------------------------------------------------------------------------

          WHEAT YIELD :     7236 kg/ha    [Dry weight] 

**************************************************************************************************************
  

*DSSAT Cropping System Model Ver. 4.8.2.000 -release  JUN 25, 2025 11:08:19

*RUN   3        : WW23_G-3                  CSCER048 CIOB2301    3
 MODEL          : CSCER048 - Wheat
 EXPERIMENT     : CIOB2301 WH ROOTS ANATOMY
 DATA PATH      : C:\DSSAT48\Wheat\
 TREATMENT  3   : WW23_G-3                  CSCER048


 CROP           : Wheat            CULTIVAR : ENTRY 3          ECOTYPE :CI0802
 STARTING DATE  : SEP  1 2022
 PLANTING DATE  : NOV 23 2022      PLANTS/m2 :   137.0    ROW SPACING :  20.cm
 WEATHER        : CIOB   2022
 SOIL           : CCENEB2301     TEXTURE : C     -   CIMMYT CENEB 710
 SOIL INIT COND : DEPTH:120cm EXTR. H2O: 82.8mm  NO3:484.0kg/ha  NH4:341.8kg/ha
 WATER BALANCE  : IRRIGATE ON REPORTED DATE(S)
 IRRIGATION     :      525 mm IN     9 APPLICATIONS
 NITROGEN BAL.  : SOIL-N & N-UPTAKE SIMULATION; NO N-FIXATION
 N-FERTILIZER   :      323 kg/ha IN     3 APPLICATIONS
 RESIDUE/MANURE : INITIAL :     0 kg/ha ;    2222 kg/ha IN     1 APPLICATIONS
 ENVIRONM. OPT. : DAYL=    0.00  SRAD=    0.00  TMAX=    0.00  TMIN=    0.00
                  RAIN=    0.00  CO2 =    0.00  DEW =    0.00  WIND=    0.00
 SIMULATION OPT : WATER   :Y  NITROGEN:Y  N-FIX:N  PHOSPH :N  PESTS  :N
                  PHOTO   :C  ET      :R  INFIL:S  HYDROL :R  SOM    :G
                  CO2 418ppm  NSWIT   :1  EVAP :R  SOIL   :2  STEMP  :D
 MANAGEMENT OPT : PLANTING:R  IRRIG   :R  FERT :R  RESIDUE:R  HARVEST:M
                  WEATHER :M  TILLAGE :Y

*SUMMARY OF SOIL AND GENETIC INPUT PARAMETERS

   SOIL LOWER UPPER   SAT  EXTR  INIT   ROOT   BULK     pH    NO3    NH4    ORG
  DEPTH LIMIT LIMIT    SW    SW    SW   DIST   DENS                          C
   cm   cm3/cm3    cm3/cm3    cm3/cm3         g/cm3         ugN/g  ugN/g     %
-------------------------------------------------------------------------------
  0-  5 0.143 0.204 0.268 0.061 0.172   1.00   1.35   8.50  29.00  29.00   1.08
  5- 15 0.143 0.204 0.268 0.061 0.172   1.00   1.35   8.50  29.00  29.00   1.08
 15- 30 0.143 0.204 0.268 0.061 0.172   1.00   1.35   8.50  29.00  29.00   1.08
 30- 45 0.166 0.234 0.274 0.068 0.225   0.41   1.58   8.50  27.00  16.00   0.80
 45- 60 0.166 0.234 0.274 0.068 0.225   0.41   1.58   8.50  27.00  16.00   0.80
 60- 90 0.155 0.227 0.276 0.072 0.207   0.22   1.50   7.90  53.00  33.00   0.87
 90-120 0.188 0.263 0.308 0.075 0.263   0.12   1.38   8.00   0.01   0.01   0.40

TOT-120  19.6  27.8  33.8   8.3  26.0  <--cm   -  kg/ha-->  484.0  341.8 137370
SOIL ALBEDO    : 0.13      EVAPORATION LIMIT : 6.00         MIN. FACTOR  : 1.00
RUNOFF CURVE # :61.00      DRAINAGE RATE     : 0.60         FERT. FACTOR : 1.00

 Wheat            CULTIVAR: 518062-ENTRY 3            ECOTYPE: CI0802
   P1V   P1D    P5    G1    G2    G3 PHINT
   2.0  41.8 605.6  21.5  48.7  4.57 114.1


*SIMULATED CROP AND SOIL STATUS AT MAIN DEVELOPMENT STAGES
  
 RUN NO.      3   ROOTS ANATOMY                                               

 ...... DATE ......  GROWTH STAGE BIOMASS   LEAF       CROP N      STRESS
 YEARDOY DOM MON DAP ............. kg/ha AREA NUMBER  kg/ha   %   H2O    N
 2022327  23 Nov   0 7 Sowing         0  0.00   0.0     0   0.0  0.00  0.00
 2022328  24 Nov   1 8 Germinate      0  0.00   0.0     0   0.0  0.00  0.00
 2022330  26 Nov   3 9 Emergence      0  0.00   0.0     0   0.0  0.00  0.00
 2023020  20 Jan  58 1 Term Spklt  1400  2.41   9.2    66   4.7  0.21  0.09
 2023039   8 Feb  77 2 End Veg     3744  5.63  11.7   123   3.3  0.02  0.00
 2023052  21 Feb  90 3 End Ear Gr  5841  4.79  11.7   120   2.1  0.00  0.00
 2023068   9 Mar 106 4 Beg Gr Fil  9172  3.94  11.7   119   1.3  0.09  0.00
 2023100  10 Apr 138 5 End Gr Fil 17173  1.47  11.7   196   1.1  0.06  0.00
 2023100  10 Apr 138 6 Harvest    17173  1.47  11.7   196   1.1  0.49  0.00
  

*MAIN GROWTH AND DEVELOPMENT VARIABLES

@     VARIABLE                             SIMULATED     MEASURED
      --------                             ---------     --------
      Emergence (DAP)                            3            7
      Anthesis (DAP)                            95           95
      Maturity (DAP)                           138          138
      Product wt (kg dm/ha;no loss)           7265         7260
      Product unit weight (g dm)             0.049        0.049
      Product number (no/m2)                 14919        14914
      Product number (no/group)               25.7        -99.0
      Product harvest index (ratio)           0.42         0.43
      Maximum leaf area index                  5.6          5.6
      Final leaf number (one axis)            11.7        -99.0
      Final shoot number (#/m2)                580          -99
      Canopy (tops) wt (kg dm/ha)            17173        16824
      Vegetative wt (kg dm/ha)                9907         9564
      Root wt (kg dm/ha)                       891          -99
      Assimilate wt (kg dm/ha)               18877          -99
      Senesced wt (kg dm/ha)                   224          -99
      Reserves wt (kg dm/ha)                  4779          -99
      N uptake (kg/ha)                       213.3        -99.0
      N senesced (kg/ha)                       3.1        -99.0
      Above-ground N (kg/ha)                 196.0        -99.0
      Root N (kg/ha)                          15.0        -99.0
      Vegetative N (kg/ha)                    40.5        -99.0
      Product N (kg/ha)                      155.5        139.3
      Product N harvest index (ratio)         0.79       -99.00
      Product N (%)                            2.1          1.9
      Vegetative N (%)                         0.4        -99.0
      Leaf+stem wt,anthesis (kg dm/ha)        6879          -99
      Leaf+stem N,anthesis (kg/ha)           119.6        -99.0
      Leaf N,anthesis (%)                      3.0        -99.0

*ENVIRONMENTAL AND STRESS FACTORS

 |-----Development Phase------|-------------Environment--------------|----------------Stress-----------------|
                              |--------Average-------|---Cumulative--|         (0=Min, 1=Max Stress)         |
                         Time  Temp  Temp Solar Photop         Evapo |----Water---|--Nitrogen--|--Phosphorus-|
                         Span   Max   Min   Rad  [day]   Rain  Trans  Photo         Photo         Photo
                         days    °C    °C MJ/m2     hr     mm     mm  synth Growth ' synth Growth  synth Growth
--------------------------------------------------------------------------------------------------------------
 Germinate  - Term Spklt   55  26.6   7.5  14.0  11.33   10.0   76.3  0.212  0.320  0.092  0.092 -99.00 -99.00
 Term Spklt - End Veg      19  25.0   5.3  16.4  11.64    0.1   59.2  0.025  0.051  0.000  0.000 -99.00 -99.00
 End Veg    - End Ear Gr   13  23.7   7.3  14.1  11.97   12.1   35.6  0.000  0.001  0.000  0.000 -99.00 -99.00
 End Ear Gr - Beg Gr Fil   16  25.4   6.3  18.8  12.32    0.1   54.4  0.088  0.136  0.000  0.000 -99.00 -99.00
 Beg Gr Fil - End Gr Fil   32  29.2   8.8  23.0  12.97   65.8  138.2  0.057  0.085  0.000  0.000 -99.00 -99.00
  
 Germinate  - End Gr Fil  135  26.6   7.3  17.1  11.94   88.1  363.7  0.114  0.174  0.038  0.038 -99.00 -99.00
--------------------------------------------------------------------------------------------------------------


*RESOURCE PRODUCTIVITY

 Growing season length: 135 days 

 Precipitation during growth season         88.1 mm[rain]
   Dry Matter Productivity                 19.49 kg[DM]/m3[rain]          =  194.9 kg[DM]/ha per mm[rain]
   Yield Productivity                       8.25 kg[grain yield]/m3[rain] =   82.5 kg[yield]/ha per mm[rain]

 Evapotranspiration during growth season   363.7 mm[ET]
   Dry Matter Productivity                  4.72 kg[DM]/m3[ET]            =   47.2 kg[DM]/ha per mm[ET]
   Yield Productivity                       2.00 kg[grain yield]/m3[ET]   =   20.0 kg[yield]/ha per mm[ET]

 Transpiration during growth season        287.4 mm[EP]
   Dry Matter Productivity                  5.98 kg[DM]/m3[EP]            =   59.8 kg[DM]/ha per mm[EP]
   Yield Productivity                       2.53 kg[grain yield]/m3[EP]   =   25.3 kg[yield]/ha per mm[EP]

 Irrigation during growing season          525.1 mm[irrig]
   Dry Matter Productivity                  3.27 kg[DM]/m3[irrig]         =   32.7 kg[DM]/ha per mm[irrig]
   Yield Productivity                       1.38 kg[grain yield]/m3[irrig]=   13.8 kg[yield]/ha per mm[irrig]

 N applied during growing season           323.0 kg[N applied]/ha
   Dry Matter Productivity                  53.2 kg[DM]/kg[N applied]
   Yield Productivity                       22.5 kg[yield]/kg[N applied]

 N uptake during growing season            213.3 kg[N uptake]/ha
   Dry Matter Productivity                  80.5 kg[DM]/kg[N uptake]
   Yield Productivity                       34.1 kg[yield]/kg[N uptake]

--------------------------------------------------------------------------------------------------------------

          WHEAT YIELD :     7265 kg/ha    [Dry weight] 

**************************************************************************************************************
  

*DSSAT Cropping System Model Ver. 4.8.2.000 -release  JUN 25, 2025 11:08:19

*RUN   4        : WW23_G-4                  CSCER048 CIOB2301    4
 MODEL          : CSCER048 - Wheat
 EXPERIMENT     : CIOB2301 WH ROOTS ANATOMY
 DATA PATH      : C:\DSSAT48\Wheat\
 TREATMENT  4   : WW23_G-4                  CSCER048


 CROP           : Wheat            CULTIVAR : ENTRY 4          ECOTYPE :CI0801
 STARTING DATE  : SEP  1 2022
 PLANTING DATE  : NOV 23 2022      PLANTS/m2 :   137.0    ROW SPACING :  20.cm
 WEATHER        : CIOB   2022
 SOIL           : CCENEB2301     TEXTURE : C     -   CIMMYT CENEB 710
 SOIL INIT COND : DEPTH:120cm EXTR. H2O: 82.8mm  NO3:484.0kg/ha  NH4:341.8kg/ha
 WATER BALANCE  : IRRIGATE ON REPORTED DATE(S)
 IRRIGATION     :      525 mm IN     9 APPLICATIONS
 NITROGEN BAL.  : SOIL-N & N-UPTAKE SIMULATION; NO N-FIXATION
 N-FERTILIZER   :      323 kg/ha IN     3 APPLICATIONS
 RESIDUE/MANURE : INITIAL :     0 kg/ha ;    2222 kg/ha IN     1 APPLICATIONS
 ENVIRONM. OPT. : DAYL=    0.00  SRAD=    0.00  TMAX=    0.00  TMIN=    0.00
                  RAIN=    0.00  CO2 =    0.00  DEW =    0.00  WIND=    0.00
 SIMULATION OPT : WATER   :Y  NITROGEN:Y  N-FIX:N  PHOSPH :N  PESTS  :N
                  PHOTO   :C  ET      :R  INFIL:S  HYDROL :R  SOM    :G
                  CO2 418ppm  NSWIT   :1  EVAP :R  SOIL   :2  STEMP  :D
 MANAGEMENT OPT : PLANTING:R  IRRIG   :R  FERT :R  RESIDUE:R  HARVEST:M
                  WEATHER :M  TILLAGE :Y

*SUMMARY OF SOIL AND GENETIC INPUT PARAMETERS

   SOIL LOWER UPPER   SAT  EXTR  INIT   ROOT   BULK     pH    NO3    NH4    ORG
  DEPTH LIMIT LIMIT    SW    SW    SW   DIST   DENS                          C
   cm   cm3/cm3    cm3/cm3    cm3/cm3         g/cm3         ugN/g  ugN/g     %
-------------------------------------------------------------------------------
  0-  5 0.143 0.204 0.268 0.061 0.172   1.00   1.35   8.50  29.00  29.00   1.08
  5- 15 0.143 0.204 0.268 0.061 0.172   1.00   1.35   8.50  29.00  29.00   1.08
 15- 30 0.143 0.204 0.268 0.061 0.172   1.00   1.35   8.50  29.00  29.00   1.08
 30- 45 0.166 0.234 0.274 0.068 0.225   0.41   1.58   8.50  27.00  16.00   0.80
 45- 60 0.166 0.234 0.274 0.068 0.225   0.41   1.58   8.50  27.00  16.00   0.80
 60- 90 0.155 0.227 0.276 0.072 0.207   0.22   1.50   7.90  53.00  33.00   0.87
 90-120 0.188 0.263 0.308 0.075 0.263   0.12   1.38   8.00   0.01   0.01   0.40

TOT-120  19.6  27.8  33.8   8.3  26.0  <--cm   -  kg/ha-->  484.0  341.8 137370
SOIL ALBEDO    : 0.13      EVAPORATION LIMIT : 6.00         MIN. FACTOR  : 1.00
RUNOFF CURVE # :61.00      DRAINAGE RATE     : 0.60         FERT. FACTOR : 1.00

 Wheat            CULTIVAR: 617502-ENTRY 4            ECOTYPE: CI0801
   P1V   P1D    P5    G1    G2    G3 PHINT
   2.0  37.2 587.5  22.2  49.3  4.22 106.6


*SIMULATED CROP AND SOIL STATUS AT MAIN DEVELOPMENT STAGES
  
 RUN NO.      4   ROOTS ANATOMY                                               

 ...... DATE ......  GROWTH STAGE BIOMASS   LEAF       CROP N      STRESS
 YEARDOY DOM MON DAP ............. kg/ha AREA NUMBER  kg/ha   %   H2O    N
 2022327  23 Nov   0 7 Sowing         0  0.00   0.0     0   0.0  0.00  0.00
 2022328  24 Nov   1 8 Germinate      0  0.00   0.0     0   0.0  0.00  0.00
 2022330  26 Nov   3 9 Emergence      0  0.00   0.0     0   0.0  0.00  0.00
 2023025  25 Jan  63 1 Term Spklt  1707  2.88  10.4    80   4.7  0.27  0.08
 2023044  13 Feb  82 2 End Veg     3754  5.51  13.2   124   3.3  0.04  0.00
 2023057  26 Feb  95 3 End Ear Gr  5974  4.64  13.2   121   2.0  0.00  0.00
 2023072  13 Mar 110 4 Beg Gr Fil  9158  3.65  13.2   119   1.3  0.11  0.00
 2023103  13 Apr 141 5 End Gr Fil 16061  0.71  13.2   198   1.2  0.13  0.00
 2023103  13 Apr 141 6 Harvest    16061  0.71  13.2   198   1.2  0.48  0.00
  

*MAIN GROWTH AND DEVELOPMENT VARIABLES

@     VARIABLE                             SIMULATED     MEASURED
      --------                             ---------     --------
      Emergence (DAP)                            3            7
      Anthesis (DAP)                            97           97
      Maturity (DAP)                           141          141
      Product wt (kg dm/ha;no loss)           7184         7183
      Product unit weight (g dm)             0.049        0.049
      Product number (no/m2)                 14571        14585
      Product number (no/group)               25.9        -99.0
      Product harvest index (ratio)           0.45         0.46
      Maximum leaf area index                  5.5          5.5
      Final leaf number (one axis)            13.2        -99.0
      Final shoot number (#/m2)                563          -99
      Canopy (tops) wt (kg dm/ha)            16061        15767
      Vegetative wt (kg dm/ha)                8877         8584
      Root wt (kg dm/ha)                       911          -99
      Assimilate wt (kg dm/ha)               17860          -99
      Senesced wt (kg dm/ha)                   283          -99
      Reserves wt (kg dm/ha)                  4006          -99
      N uptake (kg/ha)                       216.8        -99.0
      N senesced (kg/ha)                       3.9        -99.0
      Above-ground N (kg/ha)                 198.5        -99.0
      Root N (kg/ha)                          15.2        -99.0
      Vegetative N (kg/ha)                    35.9        -99.0
      Product N (kg/ha)                      162.5        153.2
      Product N harvest index (ratio)         0.82       -99.00
      Product N (%)                            2.3          2.1
      Vegetative N (%)                         0.4        -99.0
      Leaf+stem wt,anthesis (kg dm/ha)        6422          -99
      Leaf+stem N,anthesis (kg/ha)           120.1        -99.0
      Leaf N,anthesis (%)                      3.0        -99.0

*ENVIRONMENTAL AND STRESS FACTORS

 |-----Development Phase------|-------------Environment--------------|----------------Stress-----------------|
                              |--------Average-------|---Cumulative--|         (0=Min, 1=Max Stress)         |
                         Time  Temp  Temp Solar Photop         Evapo |----Water---|--Nitrogen--|--Phosphorus-|
                         Span   Max   Min   Rad  [day]   Rain  Trans  Photo         Photo         Photo
                         days    °C    °C MJ/m2     hr     mm     mm  synth Growth ' synth Growth  synth Growth
--------------------------------------------------------------------------------------------------------------
 Germinate  - Term Spklt   60  26.3   7.2  14.3  11.35   10.0   91.8  0.274  0.375  0.084  0.084 -99.00 -99.00
 Term Spklt - End Veg      19  25.4   5.6  15.5  11.74    0.1   55.6  0.041  0.087  0.000  0.000 -99.00 -99.00
 End Veg    - End Ear Gr   13  23.1   8.1  15.5  12.08   12.1   39.2  0.000  0.013  0.000  0.000 -99.00 -99.00
 End Ear Gr - Beg Gr Fil   15  27.8   6.9  20.2  12.43    0.1   56.2  0.107  0.159  0.000  0.000 -99.00 -99.00
 Beg Gr Fil - End Gr Fil   31  29.1   8.8  23.2  13.07   65.8  123.4  0.133  0.175  0.000  0.000 -99.00 -99.00
  
 Germinate  - End Gr Fil  138  26.7   7.4  17.2  11.97   88.1  366.2  0.166  0.233  0.036  0.036 -99.00 -99.00
--------------------------------------------------------------------------------------------------------------


*RESOURCE PRODUCTIVITY

 Growing season length: 138 days 

 Precipitation during growth season         88.1 mm[rain]
   Dry Matter Productivity                 18.23 kg[DM]/m3[rain]          =  182.3 kg[DM]/ha per mm[rain]
   Yield Productivity                       8.15 kg[grain yield]/m3[rain] =   81.5 kg[yield]/ha per mm[rain]

 Evapotranspiration during growth season   366.2 mm[ET]
   Dry Matter Productivity                  4.39 kg[DM]/m3[ET]            =   43.9 kg[DM]/ha per mm[ET]
   Yield Productivity                       1.96 kg[grain yield]/m3[ET]   =   19.6 kg[yield]/ha per mm[ET]

 Transpiration during growth season        300.6 mm[EP]
   Dry Matter Productivity                  5.34 kg[DM]/m3[EP]            =   53.4 kg[DM]/ha per mm[EP]
   Yield Productivity                       2.39 kg[grain yield]/m3[EP]   =   23.9 kg[yield]/ha per mm[EP]

 Irrigation during growing season          525.1 mm[irrig]
   Dry Matter Productivity                  3.06 kg[DM]/m3[irrig]         =   30.6 kg[DM]/ha per mm[irrig]
   Yield Productivity                       1.37 kg[grain yield]/m3[irrig]=   13.7 kg[yield]/ha per mm[irrig]

 N applied during growing season           323.0 kg[N applied]/ha
   Dry Matter Productivity                  49.7 kg[DM]/kg[N applied]
   Yield Productivity                       22.2 kg[yield]/kg[N applied]

 N uptake during growing season            216.8 kg[N uptake]/ha
   Dry Matter Productivity                  74.1 kg[DM]/kg[N uptake]
   Yield Productivity                       33.1 kg[yield]/kg[N uptake]

--------------------------------------------------------------------------------------------------------------

          WHEAT YIELD :     7184 kg/ha    [Dry weight] 

**************************************************************************************************************
  

*DSSAT Cropping System Model Ver. 4.8.2.000 -release  JUN 25, 2025 11:08:19

*RUN   5        : WW23_G-5                  CSCER048 CIOB2301    5
 MODEL          : CSCER048 - Wheat
 EXPERIMENT     : CIOB2301 WH ROOTS ANATOMY
 DATA PATH      : C:\DSSAT48\Wheat\
 TREATMENT  5   : WW23_G-5                  CSCER048


 CROP           : Wheat            CULTIVAR : ENTRY 5          ECOTYPE :CI0803
 STARTING DATE  : SEP  1 2022
 PLANTING DATE  : NOV 23 2022      PLANTS/m2 :   137.0    ROW SPACING :  20.cm
 WEATHER        : CIOB   2022
 SOIL           : CCENEB2301     TEXTURE : C     -   CIMMYT CENEB 710
 SOIL INIT COND : DEPTH:120cm EXTR. H2O: 82.8mm  NO3:484.0kg/ha  NH4:341.8kg/ha
 WATER BALANCE  : IRRIGATE ON REPORTED DATE(S)
 IRRIGATION     :      525 mm IN     9 APPLICATIONS
 NITROGEN BAL.  : SOIL-N & N-UPTAKE SIMULATION; NO N-FIXATION
 N-FERTILIZER   :      323 kg/ha IN     3 APPLICATIONS
 RESIDUE/MANURE : INITIAL :     0 kg/ha ;    2222 kg/ha IN     1 APPLICATIONS
 ENVIRONM. OPT. : DAYL=    0.00  SRAD=    0.00  TMAX=    0.00  TMIN=    0.00
                  RAIN=    0.00  CO2 =    0.00  DEW =    0.00  WIND=    0.00
 SIMULATION OPT : WATER   :Y  NITROGEN:Y  N-FIX:N  PHOSPH :N  PESTS  :N
                  PHOTO   :C  ET      :R  INFIL:S  HYDROL :R  SOM    :G
                  CO2 418ppm  NSWIT   :1  EVAP :R  SOIL   :2  STEMP  :D
 MANAGEMENT OPT : PLANTING:R  IRRIG   :R  FERT :R  RESIDUE:R  HARVEST:M
                  WEATHER :M  TILLAGE :Y

*SUMMARY OF SOIL AND GENETIC INPUT PARAMETERS

   SOIL LOWER UPPER   SAT  EXTR  INIT   ROOT   BULK     pH    NO3    NH4    ORG
  DEPTH LIMIT LIMIT    SW    SW    SW   DIST   DENS                          C
   cm   cm3/cm3    cm3/cm3    cm3/cm3         g/cm3         ugN/g  ugN/g     %
-------------------------------------------------------------------------------
  0-  5 0.143 0.204 0.268 0.061 0.172   1.00   1.35   8.50  29.00  29.00   1.08
  5- 15 0.143 0.204 0.268 0.061 0.172   1.00   1.35   8.50  29.00  29.00   1.08
 15- 30 0.143 0.204 0.268 0.061 0.172   1.00   1.35   8.50  29.00  29.00   1.08
 30- 45 0.166 0.234 0.274 0.068 0.225   0.41   1.58   8.50  27.00  16.00   0.80
 45- 60 0.166 0.234 0.274 0.068 0.225   0.41   1.58   8.50  27.00  16.00   0.80
 60- 90 0.155 0.227 0.276 0.072 0.207   0.22   1.50   7.90  53.00  33.00   0.87
 90-120 0.188 0.263 0.308 0.075 0.263   0.12   1.38   8.00   0.01   0.01   0.40

TOT-120  19.6  27.8  33.8   8.3  26.0  <--cm   -  kg/ha-->  484.0  341.8 137370
SOIL ALBEDO    : 0.13      EVAPORATION LIMIT : 6.00         MIN. FACTOR  : 1.00
RUNOFF CURVE # :61.00      DRAINAGE RATE     : 0.60         FERT. FACTOR : 1.00

 Wheat            CULTIVAR: 617636-ENTRY 5            ECOTYPE: CI0803
   P1V   P1D    P5    G1    G2    G3 PHINT
   2.0  45.5 622.2  19.2  48.7  0.50  90.5


*SIMULATED CROP AND SOIL STATUS AT MAIN DEVELOPMENT STAGES
  
 RUN NO.      5   ROOTS ANATOMY                                               

 ...... DATE ......  GROWTH STAGE BIOMASS   LEAF       CROP N      STRESS
 YEARDOY DOM MON DAP ............. kg/ha AREA NUMBER  kg/ha   %   H2O    N
 2022327  23 Nov   0 7 Sowing         0  0.00   0.0     0   0.0  0.00  0.00
 2022328  24 Nov   1 8 Germinate      0  0.00   0.0     0   0.0  0.00  0.00
 2022330  26 Nov   3 9 Emergence      0  0.00   0.0     0   0.0  0.00  0.00
 2023028  28 Jan  66 1 Term Spklt  1824  2.90  12.6    85   4.7  0.25  0.08
 2023046  15 Feb  84 2 End Veg     3764  5.30  15.7   125   3.3  0.04  0.00
 2023059  28 Feb  97 3 End Ear Gr  6472  4.72  15.7   122   1.9  0.00  0.00
 2023074  15 Mar 112 4 Beg Gr Fil 10393  4.06  15.7   120   1.2  0.10  0.00
 2023106  16 Apr 144 5 End Gr Fil 18359  0.59  15.7   188   1.0  0.21  0.00
 2023106  16 Apr 144 6 Harvest    18359  0.59  15.7   188   1.0  0.64  0.00
  

*MAIN GROWTH AND DEVELOPMENT VARIABLES

@     VARIABLE                             SIMULATED     MEASURED
      --------                             ---------     --------
      Emergence (DAP)                            3            7
      Anthesis (DAP)                           100          100
      Maturity (DAP)                           144          144
      Product wt (kg dm/ha;no loss)           6911         7020
      Product unit weight (g dm)             0.049        0.049
      Product number (no/m2)                 14191        14222
      Product number (no/group)                6.1        -99.0
      Product harvest index (ratio)           0.38         0.34
      Maximum leaf area index                  5.3          5.3
      Final leaf number (one axis)            15.7        -99.0
      Final shoot number (#/m2)               2323          -99
      Canopy (tops) wt (kg dm/ha)            18359        20705
      Vegetative wt (kg dm/ha)               11448        13685
      Root wt (kg dm/ha)                       990          -99
      Assimilate wt (kg dm/ha)               20353          -99
      Senesced wt (kg dm/ha)                   344          -99
      Reserves wt (kg dm/ha)                  6089          -99
      N uptake (kg/ha)                       208.1        -99.0
      N senesced (kg/ha)                       4.8        -99.0
      Above-ground N (kg/ha)                 188.4        -99.0
      Root N (kg/ha)                          15.8        -99.0
      Vegetative N (kg/ha)                    36.9        -99.0
      Product N (kg/ha)                      151.5        148.5
      Product N harvest index (ratio)         0.80       -99.00
      Product N (%)                            2.2          2.1
      Vegetative N (%)                         0.3        -99.0
      Leaf+stem wt,anthesis (kg dm/ha)        7155          -99
      Leaf+stem N,anthesis (kg/ha)           121.1        -99.0
      Leaf N,anthesis (%)                      3.0        -99.0

*ENVIRONMENTAL AND STRESS FACTORS

 |-----Development Phase------|-------------Environment--------------|----------------Stress-----------------|
                              |--------Average-------|---Cumulative--|         (0=Min, 1=Max Stress)         |
                         Time  Temp  Temp Solar Photop         Evapo |----Water---|--Nitrogen--|--Phosphorus-|
                         Span   Max   Min   Rad  [day]   Rain  Trans  Photo         Photo         Photo
                         days    °C    °C MJ/m2     hr     mm     mm  synth Growth ' synth Growth  synth Growth
--------------------------------------------------------------------------------------------------------------
 Germinate  - Term Spklt   63  26.2   7.1  14.3  11.36   10.0   98.9  0.253  0.351  0.082  0.082 -99.00 -99.00
 Term Spklt - End Veg      18  25.3   5.7  15.8  11.78    3.6   53.6  0.042  0.100  0.000  0.000 -99.00 -99.00
 End Veg    - End Ear Gr   13  23.7   8.2  15.9  12.13    8.6   40.6  0.000  0.000  0.000  0.000 -99.00 -99.00
 End Ear Gr - Beg Gr Fil   15  28.3   7.3  20.5  12.49    0.1   58.2  0.097  0.150  0.000  0.000 -99.00 -99.00
 Beg Gr Fil - End Gr Fil   32  29.1   9.0  23.5  13.14   65.8  118.0  0.211  0.255  0.000  0.000 -99.00 -99.00
  
 Germinate  - End Gr Fil  141  26.7   7.5  17.4  12.01   88.1  369.2  0.177  0.243  0.037  0.037 -99.00 -99.00
--------------------------------------------------------------------------------------------------------------


*RESOURCE PRODUCTIVITY

 Growing season length: 141 days 

 Precipitation during growth season         88.1 mm[rain]
   Dry Matter Productivity                 20.84 kg[DM]/m3[rain]          =  208.4 kg[DM]/ha per mm[rain]
   Yield Productivity                       7.84 kg[grain yield]/m3[rain] =   78.4 kg[yield]/ha per mm[rain]

 Evapotranspiration during growth season   369.2 mm[ET]
   Dry Matter Productivity                  4.97 kg[DM]/m3[ET]            =   49.7 kg[DM]/ha per mm[ET]
   Yield Productivity                       1.87 kg[grain yield]/m3[ET]   =   18.7 kg[yield]/ha per mm[ET]

 Transpiration during growth season        305.0 mm[EP]
   Dry Matter Productivity                  6.02 kg[DM]/m3[EP]            =   60.2 kg[DM]/ha per mm[EP]
   Yield Productivity                       2.27 kg[grain yield]/m3[EP]   =   22.7 kg[yield]/ha per mm[EP]

 Irrigation during growing season          525.1 mm[irrig]
   Dry Matter Productivity                  3.50 kg[DM]/m3[irrig]         =   35.0 kg[DM]/ha per mm[irrig]
   Yield Productivity                       1.32 kg[grain yield]/m3[irrig]=   13.2 kg[yield]/ha per mm[irrig]

 N applied during growing season           323.0 kg[N applied]/ha
   Dry Matter Productivity                  56.8 kg[DM]/kg[N applied]
   Yield Productivity                       21.4 kg[yield]/kg[N applied]

 N uptake during growing season            208.1 kg[N uptake]/ha
   Dry Matter Productivity                  88.2 kg[DM]/kg[N uptake]
   Yield Productivity                       33.2 kg[yield]/kg[N uptake]

--------------------------------------------------------------------------------------------------------------

          WHEAT YIELD :     6911 kg/ha    [Dry weight] 

**************************************************************************************************************
  

*DSSAT Cropping System Model Ver. 4.8.2.000 -release  JUN 25, 2025 11:08:19

*RUN   6        : WW23_G-6                  CSCER048 CIOB2301    6
 MODEL          : CSCER048 - Wheat
 EXPERIMENT     : CIOB2301 WH ROOTS ANATOMY
 DATA PATH      : C:\DSSAT48\Wheat\
 TREATMENT  6   : WW23_G-6                  CSCER048


 CROP           : Wheat            CULTIVAR : ENTRY 6          ECOTYPE :CI0800
 STARTING DATE  : SEP  1 2022
 PLANTING DATE  : NOV 23 2022      PLANTS/m2 :   137.0    ROW SPACING :  20.cm
 WEATHER        : CIOB   2022
 SOIL           : CCENEB2301     TEXTURE : C     -   CIMMYT CENEB 710
 SOIL INIT COND : DEPTH:120cm EXTR. H2O: 82.8mm  NO3:484.0kg/ha  NH4:341.8kg/ha
 WATER BALANCE  : IRRIGATE ON REPORTED DATE(S)
 IRRIGATION     :      525 mm IN     9 APPLICATIONS
 NITROGEN BAL.  : SOIL-N & N-UPTAKE SIMULATION; NO N-FIXATION
 N-FERTILIZER   :      323 kg/ha IN     3 APPLICATIONS
 RESIDUE/MANURE : INITIAL :     0 kg/ha ;    2222 kg/ha IN     1 APPLICATIONS
 ENVIRONM. OPT. : DAYL=    0.00  SRAD=    0.00  TMAX=    0.00  TMIN=    0.00
                  RAIN=    0.00  CO2 =    0.00  DEW =    0.00  WIND=    0.00
 SIMULATION OPT : WATER   :Y  NITROGEN:Y  N-FIX:N  PHOSPH :N  PESTS  :N
                  PHOTO   :C  ET      :R  INFIL:S  HYDROL :R  SOM    :G
                  CO2 418ppm  NSWIT   :1  EVAP :R  SOIL   :2  STEMP  :D
 MANAGEMENT OPT : PLANTING:R  IRRIG   :R  FERT :R  RESIDUE:R  HARVEST:M
                  WEATHER :M  TILLAGE :Y

*SUMMARY OF SOIL AND GENETIC INPUT PARAMETERS

   SOIL LOWER UPPER   SAT  EXTR  INIT   ROOT   BULK     pH    NO3    NH4    ORG
  DEPTH LIMIT LIMIT    SW    SW    SW   DIST   DENS                          C
   cm   cm3/cm3    cm3/cm3    cm3/cm3         g/cm3         ugN/g  ugN/g     %
-------------------------------------------------------------------------------
  0-  5 0.143 0.204 0.268 0.061 0.172   1.00   1.35   8.50  29.00  29.00   1.08
  5- 15 0.143 0.204 0.268 0.061 0.172   1.00   1.35   8.50  29.00  29.00   1.08
 15- 30 0.143 0.204 0.268 0.061 0.172   1.00   1.35   8.50  29.00  29.00   1.08
 30- 45 0.166 0.234 0.274 0.068 0.225   0.41   1.58   8.50  27.00  16.00   0.80
 45- 60 0.166 0.234 0.274 0.068 0.225   0.41   1.58   8.50  27.00  16.00   0.80
 60- 90 0.155 0.227 0.276 0.072 0.207   0.22   1.50   7.90  53.00  33.00   0.87
 90-120 0.188 0.263 0.308 0.075 0.263   0.12   1.38   8.00   0.01   0.01   0.40

TOT-120  19.6  27.8  33.8   8.3  26.0  <--cm   -  kg/ha-->  484.0  341.8 137370
SOIL ALBEDO    : 0.13      EVAPORATION LIMIT : 6.00         MIN. FACTOR  : 1.00
RUNOFF CURVE # :61.00      DRAINAGE RATE     : 0.60         FERT. FACTOR : 1.00

 Wheat            CULTIVAR: 474812-ENTRY 6            ECOTYPE: CI0800
   P1V   P1D    P5    G1    G2    G3 PHINT
   2.0  36.5 575.4  22.0  42.6  4.18 102.9


*SIMULATED CROP AND SOIL STATUS AT MAIN DEVELOPMENT STAGES
  
 RUN NO.      6   ROOTS ANATOMY                                               

 ...... DATE ......  GROWTH STAGE BIOMASS   LEAF       CROP N      STRESS
 YEARDOY DOM MON DAP ............. kg/ha AREA NUMBER  kg/ha   %   H2O    N
 2022327  23 Nov   0 7 Sowing         0  0.00   0.0     0   0.0  0.00  0.00
 2022328  24 Nov   1 8 Germinate      0  0.00   0.0     0   0.0  0.00  0.00
 2022330  26 Nov   3 9 Emergence      0  0.00   0.0     0   0.0  0.00  0.00
 2023030  30 Jan  68 1 Term Spklt  2041  3.37  11.5    96   4.7  0.26  0.07
 2023048  17 Feb  86 2 End Veg     3915  5.68  14.2   131   3.4  0.04  0.00
 2023061   2 Mar  99 3 End Ear Gr  6870  4.75  14.2   127   1.9  0.00  0.00
 2023075  16 Mar 113 4 Beg Gr Fil 11124  3.90  14.2   126   1.1  0.10  0.00
 2023105  15 Apr 143 5 End Gr Fil 19693  0.44  14.2   190   1.0  0.18  0.00
 2023105  15 Apr 143 6 Harvest    19693  0.44  14.2   190   1.0  0.53  0.00
  

*MAIN GROWTH AND DEVELOPMENT VARIABLES

@     VARIABLE                             SIMULATED     MEASURED
      --------                             ---------     --------
      Emergence (DAP)                            3            7
      Anthesis (DAP)                           101          100
      Maturity (DAP)                           143          143
      Product wt (kg dm/ha;no loss)           7030         6947
      Product unit weight (g dm)             0.043        0.042
      Product number (no/m2)                 16503        16489
      Product number (no/group)               24.4        -99.0
      Product harvest index (ratio)           0.36         0.39
      Maximum leaf area index                  5.7          5.7
      Final leaf number (one axis)            14.2        -99.0
      Final shoot number (#/m2)                676          -99
      Canopy (tops) wt (kg dm/ha)            19693        17928
      Vegetative wt (kg dm/ha)               12663        10981
      Root wt (kg dm/ha)                      1060          -99
      Assimilate wt (kg dm/ha)               21815          -99
      Senesced wt (kg dm/ha)                   353          -99
      Reserves wt (kg dm/ha)                  6981          -99
      N uptake (kg/ha)                       212.0        -99.0
      N senesced (kg/ha)                       4.9        -99.0
      Above-ground N (kg/ha)                 190.3        -99.0
      Root N (kg/ha)                          17.6        -99.0
      Vegetative N (kg/ha)                    38.8        -99.0
      Product N (kg/ha)                      151.5        133.9
      Product N harvest index (ratio)         0.80       -99.00
      Product N (%)                            2.2          1.9
      Vegetative N (%)                         0.3        -99.0
      Leaf+stem wt,anthesis (kg dm/ha)        7477          -99
      Leaf+stem N,anthesis (kg/ha)           126.7        -99.0
      Leaf N,anthesis (%)                      3.1        -99.0

*ENVIRONMENTAL AND STRESS FACTORS

 |-----Development Phase------|-------------Environment--------------|----------------Stress-----------------|
                              |--------Average-------|---Cumulative--|         (0=Min, 1=Max Stress)         |
                         Time  Temp  Temp Solar Photop         Evapo |----Water---|--Nitrogen--|--Phosphorus-|
                         Span   Max   Min   Rad  [day]   Rain  Trans  Photo         Photo         Photo
                         days    °C    °C MJ/m2     hr     mm     mm  synth Growth ' synth Growth  synth Growth
--------------------------------------------------------------------------------------------------------------
 Germinate  - Term Spklt   65  26.2   7.0  14.4  11.37   10.0  106.5  0.259  0.356  0.073  0.073 -99.00 -99.00
 Term Spklt - End Veg      18  25.1   5.7  15.7  11.83    3.6   53.3  0.042  0.088  0.000  0.000 -99.00 -99.00
 End Veg    - End Ear Gr   13  23.4   8.5  15.6  12.18    8.7   39.7  0.000  0.000  0.000  0.000 -99.00 -99.00
 End Ear Gr - Beg Gr Fil   14  29.5   7.7  21.3  12.53    0.0   57.4  0.097  0.154  0.000  0.000 -99.00 -99.00
 Beg Gr Fil - End Gr Fil   30  29.0   8.8  23.6  13.14   65.8  114.0  0.176  0.221  0.000  0.000 -99.00 -99.00
  
 Germinate  - End Gr Fil  140  26.7   7.5  17.3  12.00   88.1  370.8  0.173  0.239  0.034  0.034 -99.00 -99.00
--------------------------------------------------------------------------------------------------------------


*RESOURCE PRODUCTIVITY

 Growing season length: 140 days 

 Precipitation during growth season         88.1 mm[rain]
   Dry Matter Productivity                 22.35 kg[DM]/m3[rain]          =  223.5 kg[DM]/ha per mm[rain]
   Yield Productivity                       7.98 kg[grain yield]/m3[rain] =   79.8 kg[yield]/ha per mm[rain]

 Evapotranspiration during growth season   370.8 mm[ET]
   Dry Matter Productivity                  5.31 kg[DM]/m3[ET]            =   53.1 kg[DM]/ha per mm[ET]
   Yield Productivity                       1.90 kg[grain yield]/m3[ET]   =   19.0 kg[yield]/ha per mm[ET]

 Transpiration during growth season        308.3 mm[EP]
   Dry Matter Productivity                  6.39 kg[DM]/m3[EP]            =   63.9 kg[DM]/ha per mm[EP]
   Yield Productivity                       2.28 kg[grain yield]/m3[EP]   =   22.8 kg[yield]/ha per mm[EP]

 Irrigation during growing season          525.1 mm[irrig]
   Dry Matter Productivity                  3.75 kg[DM]/m3[irrig]         =   37.5 kg[DM]/ha per mm[irrig]
   Yield Productivity                       1.34 kg[grain yield]/m3[irrig]=   13.4 kg[yield]/ha per mm[irrig]

 N applied during growing season           323.0 kg[N applied]/ha
   Dry Matter Productivity                  61.0 kg[DM]/kg[N applied]
   Yield Productivity                       21.8 kg[yield]/kg[N applied]

 N uptake during growing season            212.0 kg[N uptake]/ha
   Dry Matter Productivity                  92.9 kg[DM]/kg[N uptake]
   Yield Productivity                       33.2 kg[yield]/kg[N uptake]

--------------------------------------------------------------------------------------------------------------

          WHEAT YIELD :     7030 kg/ha    [Dry weight] 

**************************************************************************************************************
  

*DSSAT Cropping System Model Ver. 4.8.2.000 -release  JUN 25, 2025 11:08:19

*RUN   7        : WW23_G-7                  CSCER048 CIOB2301    7
 MODEL          : CSCER048 - Wheat
 EXPERIMENT     : CIOB2301 WH ROOTS ANATOMY
 DATA PATH      : C:\DSSAT48\Wheat\
 TREATMENT  7   : WW23_G-7                  CSCER048


 CROP           : Wheat            CULTIVAR : ENTRY 7          ECOTYPE :CI0801
 STARTING DATE  : SEP  1 2022
 PLANTING DATE  : NOV 23 2022      PLANTS/m2 :   137.0    ROW SPACING :  20.cm
 WEATHER        : CIOB   2022
 SOIL           : CCENEB2301     TEXTURE : C     -   CIMMYT CENEB 710
 SOIL INIT COND : DEPTH:120cm EXTR. H2O: 82.8mm  NO3:484.0kg/ha  NH4:341.8kg/ha
 WATER BALANCE  : IRRIGATE ON REPORTED DATE(S)
 IRRIGATION     :      525 mm IN     9 APPLICATIONS
 NITROGEN BAL.  : SOIL-N & N-UPTAKE SIMULATION; NO N-FIXATION
 N-FERTILIZER   :      323 kg/ha IN     3 APPLICATIONS
 RESIDUE/MANURE : INITIAL :     0 kg/ha ;    2222 kg/ha IN     1 APPLICATIONS
 ENVIRONM. OPT. : DAYL=    0.00  SRAD=    0.00  TMAX=    0.00  TMIN=    0.00
                  RAIN=    0.00  CO2 =    0.00  DEW =    0.00  WIND=    0.00
 SIMULATION OPT : WATER   :Y  NITROGEN:Y  N-FIX:N  PHOSPH :N  PESTS  :N
                  PHOTO   :C  ET      :R  INFIL:S  HYDROL :R  SOM    :G
                  CO2 418ppm  NSWIT   :1  EVAP :R  SOIL   :2  STEMP  :D
 MANAGEMENT OPT : PLANTING:R  IRRIG   :R  FERT :R  RESIDUE:R  HARVEST:M
                  WEATHER :M  TILLAGE :Y

*SUMMARY OF SOIL AND GENETIC INPUT PARAMETERS

   SOIL LOWER UPPER   SAT  EXTR  INIT   ROOT   BULK     pH    NO3    NH4    ORG
  DEPTH LIMIT LIMIT    SW    SW    SW   DIST   DENS                          C
   cm   cm3/cm3    cm3/cm3    cm3/cm3         g/cm3         ugN/g  ugN/g     %
-------------------------------------------------------------------------------
  0-  5 0.143 0.204 0.268 0.061 0.172   1.00   1.35   8.50  29.00  29.00   1.08
  5- 15 0.143 0.204 0.268 0.061 0.172   1.00   1.35   8.50  29.00  29.00   1.08
 15- 30 0.143 0.204 0.268 0.061 0.172   1.00   1.35   8.50  29.00  29.00   1.08
 30- 45 0.166 0.234 0.274 0.068 0.225   0.41   1.58   8.50  27.00  16.00   0.80
 45- 60 0.166 0.234 0.274 0.068 0.225   0.41   1.58   8.50  27.00  16.00   0.80
 60- 90 0.155 0.227 0.276 0.072 0.207   0.22   1.50   7.90  53.00  33.00   0.87
 90-120 0.188 0.263 0.308 0.075 0.263   0.12   1.38   8.00   0.01   0.01   0.40

TOT-120  19.6  27.8  33.8   8.3  26.0  <--cm   -  kg/ha-->  484.0  341.8 137370
SOIL ALBEDO    : 0.13      EVAPORATION LIMIT : 6.00         MIN. FACTOR  : 1.00
RUNOFF CURVE # :61.00      DRAINAGE RATE     : 0.60         FERT. FACTOR : 1.00

 Wheat            CULTIVAR: 748117-ENTRY 7            ECOTYPE: CI0801
   P1V   P1D    P5    G1    G2    G3 PHINT
   2.0  46.0 563.6  22.7  41.5  4.13 133.9


*SIMULATED CROP AND SOIL STATUS AT MAIN DEVELOPMENT STAGES
  
 RUN NO.      7   ROOTS ANATOMY                                               

 ...... DATE ......  GROWTH STAGE BIOMASS   LEAF       CROP N      STRESS
 YEARDOY DOM MON DAP ............. kg/ha AREA NUMBER  kg/ha   %   H2O    N
 2022327  23 Nov   0 7 Sowing         0  0.00   0.0     0   0.0  0.00  0.00
 2022328  24 Nov   1 8 Germinate      0  0.00   0.0     0   0.0  0.00  0.00
 2022330  26 Nov   3 9 Emergence      0  0.00   0.0     0   0.0  0.00  0.00
 2023029  29 Jan  67 1 Term Spklt  2248  4.02   8.9   108   4.8  0.26  0.08
 2023047  16 Feb  85 2 End Veg     4262  6.66  11.0   144   3.4  0.04  0.00
 2023060   1 Mar  98 3 End Ear Gr  6415  5.62  11.0   141   2.2  0.00  0.00
 2023074  15 Mar 112 4 Beg Gr Fil  9655  4.57  11.0   140   1.5  0.10  0.00
 2023104  14 Apr 142 5 End Gr Fil 16243  0.87  11.0   188   1.2  0.19  0.00
 2023104  14 Apr 142 6 Harvest    16243  0.87  11.0   188   1.2  0.65  0.00
  

*MAIN GROWTH AND DEVELOPMENT VARIABLES

@     VARIABLE                             SIMULATED     MEASURED
      --------                             ---------     --------
      Emergence (DAP)                            3            7
      Anthesis (DAP)                           101          101
      Maturity (DAP)                           142          142
      Product wt (kg dm/ha;no loss)           6650         6650
      Product unit weight (g dm)             0.041        0.041
      Product number (no/m2)                 16024        16031
      Product number (no/group)               29.1        -99.0
      Product harvest index (ratio)           0.41         0.41
      Maximum leaf area index                  6.7          6.7
      Final leaf number (one axis)            11.0        -99.0
      Final shoot number (#/m2)                550          -99
      Canopy (tops) wt (kg dm/ha)            16243        16066
      Vegetative wt (kg dm/ha)                9593         9416
      Root wt (kg dm/ha)                       993          -99
      Assimilate wt (kg dm/ha)               18177          -99
      Senesced wt (kg dm/ha)                   279          -99
      Reserves wt (kg dm/ha)                  4492          -99
      N uptake (kg/ha)                       207.5        -99.0
      N senesced (kg/ha)                       3.8        -99.0
      Above-ground N (kg/ha)                 187.7        -99.0
      Root N (kg/ha)                          16.7        -99.0
      Vegetative N (kg/ha)                    39.6        -99.0
      Product N (kg/ha)                      148.2        123.9
      Product N harvest index (ratio)         0.79       -99.00
      Product N (%)                            2.2          1.9
      Vegetative N (%)                         0.4        -99.0
      Leaf+stem wt,anthesis (kg dm/ha)        7116          -99
      Leaf+stem N,anthesis (kg/ha)           140.6        -99.0
      Leaf N,anthesis (%)                      3.0        -99.0

*ENVIRONMENTAL AND STRESS FACTORS

 |-----Development Phase------|-------------Environment--------------|----------------Stress-----------------|
                              |--------Average-------|---Cumulative--|         (0=Min, 1=Max Stress)         |
                         Time  Temp  Temp Solar Photop         Evapo |----Water---|--Nitrogen--|--Phosphorus-|
                         Span   Max   Min   Rad  [day]   Rain  Trans  Photo         Photo         Photo
                         days    °C    °C MJ/m2     hr     mm     mm  synth Growth ' synth Growth  synth Growth
--------------------------------------------------------------------------------------------------------------
 Germinate  - Term Spklt   64  26.2   7.1  14.4  11.36   10.0  104.9  0.262  0.359  0.079  0.079 -99.00 -99.00
 Term Spklt - End Veg      18  25.1   5.9  15.8  11.81    3.6   53.7  0.041  0.090  0.000  0.000 -99.00 -99.00
 End Veg    - End Ear Gr   13  23.5   8.2  15.0  12.15    8.6   38.1  0.000  0.000  0.000  0.000 -99.00 -99.00
 End Ear Gr - Beg Gr Fil   14  29.0   7.3  21.5  12.50    0.1   56.9  0.105  0.161  0.000  0.000 -99.00 -99.00
 Beg Gr Fil - End Gr Fil   30  29.0   8.9  23.3  13.11   65.8  115.8  0.187  0.230  0.000  0.000 -99.00 -99.00
  
 Germinate  - End Gr Fil  139  26.7   7.4  17.3  11.99   88.1  369.4  0.177  0.243  0.036  0.036 -99.00 -99.00
--------------------------------------------------------------------------------------------------------------


*RESOURCE PRODUCTIVITY

 Growing season length: 139 days 

 Precipitation during growth season         88.1 mm[rain]
   Dry Matter Productivity                 18.44 kg[DM]/m3[rain]          =  184.4 kg[DM]/ha per mm[rain]
   Yield Productivity                       7.55 kg[grain yield]/m3[rain] =   75.5 kg[yield]/ha per mm[rain]

 Evapotranspiration during growth season   369.4 mm[ET]
   Dry Matter Productivity                  4.40 kg[DM]/m3[ET]            =   44.0 kg[DM]/ha per mm[ET]
   Yield Productivity                       1.80 kg[grain yield]/m3[ET]   =   18.0 kg[yield]/ha per mm[ET]

 Transpiration during growth season        312.0 mm[EP]
   Dry Matter Productivity                  5.21 kg[DM]/m3[EP]            =   52.1 kg[DM]/ha per mm[EP]
   Yield Productivity                       2.13 kg[grain yield]/m3[EP]   =   21.3 kg[yield]/ha per mm[EP]

 Irrigation during growing season          525.1 mm[irrig]
   Dry Matter Productivity                  3.09 kg[DM]/m3[irrig]         =   30.9 kg[DM]/ha per mm[irrig]
   Yield Productivity                       1.27 kg[grain yield]/m3[irrig]=   12.7 kg[yield]/ha per mm[irrig]

 N applied during growing season           323.0 kg[N applied]/ha
   Dry Matter Productivity                  50.3 kg[DM]/kg[N applied]
   Yield Productivity                       20.6 kg[yield]/kg[N applied]

 N uptake during growing season            207.5 kg[N uptake]/ha
   Dry Matter Productivity                  78.3 kg[DM]/kg[N uptake]
   Yield Productivity                       32.1 kg[yield]/kg[N uptake]

--------------------------------------------------------------------------------------------------------------

          WHEAT YIELD :     6650 kg/ha    [Dry weight] 

**************************************************************************************************************
  

*DSSAT Cropping System Model Ver. 4.8.2.000 -release  JUN 25, 2025 11:08:19

*RUN   8        : WW23_G-8                  CSCER048 CIOB2301    8
 MODEL          : CSCER048 - Wheat
 EXPERIMENT     : CIOB2301 WH ROOTS ANATOMY
 DATA PATH      : C:\DSSAT48\Wheat\
 TREATMENT  8   : WW23_G-8                  CSCER048


 CROP           : Wheat            CULTIVAR : ENTRY 8          ECOTYPE :CI0800
 STARTING DATE  : SEP  1 2022
 PLANTING DATE  : NOV 23 2022      PLANTS/m2 :   137.0    ROW SPACING :  20.cm
 WEATHER        : CIOB   2022
 SOIL           : CCENEB2301     TEXTURE : C     -   CIMMYT CENEB 710
 SOIL INIT COND : DEPTH:120cm EXTR. H2O: 82.8mm  NO3:484.0kg/ha  NH4:341.8kg/ha
 WATER BALANCE  : IRRIGATE ON REPORTED DATE(S)
 IRRIGATION     :      525 mm IN     9 APPLICATIONS
 NITROGEN BAL.  : SOIL-N & N-UPTAKE SIMULATION; NO N-FIXATION
 N-FERTILIZER   :      323 kg/ha IN     3 APPLICATIONS
 RESIDUE/MANURE : INITIAL :     0 kg/ha ;    2222 kg/ha IN     1 APPLICATIONS
 ENVIRONM. OPT. : DAYL=    0.00  SRAD=    0.00  TMAX=    0.00  TMIN=    0.00
                  RAIN=    0.00  CO2 =    0.00  DEW =    0.00  WIND=    0.00
 SIMULATION OPT : WATER   :Y  NITROGEN:Y  N-FIX:N  PHOSPH :N  PESTS  :N
                  PHOTO   :C  ET      :R  INFIL:S  HYDROL :R  SOM    :G
                  CO2 418ppm  NSWIT   :1  EVAP :R  SOIL   :2  STEMP  :D
 MANAGEMENT OPT : PLANTING:R  IRRIG   :R  FERT :R  RESIDUE:R  HARVEST:M
                  WEATHER :M  TILLAGE :Y

*SUMMARY OF SOIL AND GENETIC INPUT PARAMETERS

   SOIL LOWER UPPER   SAT  EXTR  INIT   ROOT   BULK     pH    NO3    NH4    ORG
  DEPTH LIMIT LIMIT    SW    SW    SW   DIST   DENS                          C
   cm   cm3/cm3    cm3/cm3    cm3/cm3         g/cm3         ugN/g  ugN/g     %
-------------------------------------------------------------------------------
  0-  5 0.143 0.204 0.268 0.061 0.172   1.00   1.35   8.50  29.00  29.00   1.08
  5- 15 0.143 0.204 0.268 0.061 0.172   1.00   1.35   8.50  29.00  29.00   1.08
 15- 30 0.143 0.204 0.268 0.061 0.172   1.00   1.35   8.50  29.00  29.00   1.08
 30- 45 0.166 0.234 0.274 0.068 0.225   0.41   1.58   8.50  27.00  16.00   0.80
 45- 60 0.166 0.234 0.274 0.068 0.225   0.41   1.58   8.50  27.00  16.00   0.80
 60- 90 0.155 0.227 0.276 0.072 0.207   0.22   1.50   7.90  53.00  33.00   0.87
 90-120 0.188 0.263 0.308 0.075 0.263   0.12   1.38   8.00   0.01   0.01   0.40

TOT-120  19.6  27.8  33.8   8.3  26.0  <--cm   -  kg/ha-->  484.0  341.8 137370
SOIL ALBEDO    : 0.13      EVAPORATION LIMIT : 6.00         MIN. FACTOR  : 1.00
RUNOFF CURVE # :61.00      DRAINAGE RATE     : 0.60         FERT. FACTOR : 1.00

 Wheat            CULTIVAR: 748118-ENTRY 8            ECOTYPE: CI0800
   P1V   P1D    P5    G1    G2    G3 PHINT
   2.0  44.6 582.4  20.1  41.1  3.97  97.0


*SIMULATED CROP AND SOIL STATUS AT MAIN DEVELOPMENT STAGES
  
 RUN NO.      8   ROOTS ANATOMY                                               

 ...... DATE ......  GROWTH STAGE BIOMASS   LEAF       CROP N      STRESS
 YEARDOY DOM MON DAP ............. kg/ha AREA NUMBER  kg/ha   %   H2O    N
 2022327  23 Nov   0 7 Sowing         0  0.00   0.0     0   0.0  0.00  0.00
 2022328  24 Nov   1 8 Germinate      0  0.00   0.0     0   0.0  0.00  0.00
 2022330  26 Nov   3 9 Emergence      0  0.00   0.0     0   0.0  0.00  0.00
 2023033   2 Feb  71 1 Term Spklt  2195  3.51  12.6   103   4.7  0.25  0.07
 2023051  20 Feb  89 2 End Veg     4048  5.75  15.5   136   3.4  0.02  0.00
 2023064   5 Mar 102 3 End Ear Gr  7273  4.85  15.5   132   1.8  0.04  0.00
 2023077  18 Mar 115 4 Beg Gr Fil 11159  3.98  15.5   131   1.2  0.06  0.00
 2023108  18 Apr 146 5 End Gr Fil 19542  0.17  15.5   177   0.9  0.23  0.00
 2023108  18 Apr 146 6 Harvest    19542  0.17  15.5   177   0.9  0.27  0.00
  

*MAIN GROWTH AND DEVELOPMENT VARIABLES

@     VARIABLE                             SIMULATED     MEASURED
      --------                             ---------     --------
      Emergence (DAP)                            3            7
      Anthesis (DAP)                           104          104
      Maturity (DAP)                           146          146
      Product wt (kg dm/ha;no loss)           6347         6393
      Product unit weight (g dm)             0.041        0.041
      Product number (no/m2)                 15443        15446
      Product number (no/group)               20.8        -99.0
      Product harvest index (ratio)           0.32         0.31
      Maximum leaf area index                  5.7          5.7
      Final leaf number (one axis)            15.5        -99.0
      Final shoot number (#/m2)                741          -99
      Canopy (tops) wt (kg dm/ha)            19542        20909
      Vegetative wt (kg dm/ha)               13195        14516
      Root wt (kg dm/ha)                      1101          -99
      Assimilate wt (kg dm/ha)               21821          -99
      Senesced wt (kg dm/ha)                   439          -99
      Reserves wt (kg dm/ha)                  7443          -99
      N uptake (kg/ha)                       200.5        -99.0
      N senesced (kg/ha)                       6.1        -99.0
      Above-ground N (kg/ha)                 177.4        -99.0
      Root N (kg/ha)                          17.8        -99.0
      Vegetative N (kg/ha)                    38.2        -99.0
      Product N (kg/ha)                      139.2        141.9
      Product N harvest index (ratio)         0.78       -99.00
      Product N (%)                            2.2          2.2
      Vegetative N (%)                         0.3        -99.0
      Leaf+stem wt,anthesis (kg dm/ha)        7602          -99
      Leaf+stem N,anthesis (kg/ha)           131.4        -99.0
      Leaf N,anthesis (%)                      3.1        -99.0

*ENVIRONMENTAL AND STRESS FACTORS

 |-----Development Phase------|-------------Environment--------------|----------------Stress-----------------|
                              |--------Average-------|---Cumulative--|         (0=Min, 1=Max Stress)         |
                         Time  Temp  Temp Solar Photop         Evapo |----Water---|--Nitrogen--|--Phosphorus-|
                         Span   Max   Min   Rad  [day]   Rain  Trans  Photo         Photo         Photo
                         days    °C    °C MJ/m2     hr     mm     mm  synth Growth ' synth Growth  synth Growth
--------------------------------------------------------------------------------------------------------------
 Germinate  - Term Spklt   68  26.0   7.0  14.4  11.38   10.0  113.6  0.247  0.347  0.072  0.072 -99.00 -99.00
 Term Spklt - End Veg      18  25.2   6.8  15.2  11.89   11.8   53.1  0.021  0.038  0.000  0.000 -99.00 -99.00
 End Veg    - End Ear Gr   13  24.0   6.5  17.9  12.25    0.5   43.1  0.039  0.079  0.000  0.000 -99.00 -99.00
 End Ear Gr - Beg Gr Fil   13  29.5   9.7  20.1  12.59   65.8   52.8  0.062  0.084  0.000  0.000 -99.00 -99.00
 Beg Gr Fil - End Gr Fil   31  29.4   8.7  24.3  13.21    0.0  111.1  0.233  0.284  0.000  0.000 -99.00 -99.00
  
 Germinate  - End Gr Fil  143  26.8   7.5  17.5  12.03   88.1  373.8  0.180  0.246  0.034  0.034 -99.00 -99.00
--------------------------------------------------------------------------------------------------------------


*RESOURCE PRODUCTIVITY

 Growing season length: 143 days 

 Precipitation during growth season         88.1 mm[rain]
   Dry Matter Productivity                 22.18 kg[DM]/m3[rain]          =  221.8 kg[DM]/ha per mm[rain]
   Yield Productivity                       7.20 kg[grain yield]/m3[rain] =   72.0 kg[yield]/ha per mm[rain]

 Evapotranspiration during growth season   373.8 mm[ET]
   Dry Matter Productivity                  5.23 kg[DM]/m3[ET]            =   52.3 kg[DM]/ha per mm[ET]
   Yield Productivity                       1.70 kg[grain yield]/m3[ET]   =   17.0 kg[yield]/ha per mm[ET]

 Transpiration during growth season        311.5 mm[EP]
   Dry Matter Productivity                  6.27 kg[DM]/m3[EP]            =   62.7 kg[DM]/ha per mm[EP]
   Yield Productivity                       2.04 kg[grain yield]/m3[EP]   =   20.4 kg[yield]/ha per mm[EP]

 Irrigation during growing season          525.1 mm[irrig]
   Dry Matter Productivity                  3.72 kg[DM]/m3[irrig]         =   37.2 kg[DM]/ha per mm[irrig]
   Yield Productivity                       1.21 kg[grain yield]/m3[irrig]=   12.1 kg[yield]/ha per mm[irrig]

 N applied during growing season           323.0 kg[N applied]/ha
   Dry Matter Productivity                  60.5 kg[DM]/kg[N applied]
   Yield Productivity                       19.7 kg[yield]/kg[N applied]

 N uptake during growing season            200.5 kg[N uptake]/ha
   Dry Matter Productivity                  97.5 kg[DM]/kg[N uptake]
   Yield Productivity                       31.7 kg[yield]/kg[N uptake]

--------------------------------------------------------------------------------------------------------------

          WHEAT YIELD :     6347 kg/ha    [Dry weight] 

**************************************************************************************************************
  

*DSSAT Cropping System Model Ver. 4.8.2.000 -release  JUN 25, 2025 11:08:19

*RUN   9        : WW23_G-9                  CSCER048 CIOB2301    9
 MODEL          : CSCER048 - Wheat
 EXPERIMENT     : CIOB2301 WH ROOTS ANATOMY
 DATA PATH      : C:\DSSAT48\Wheat\
 TREATMENT  9   : WW23_G-9                  CSCER048


 CROP           : Wheat            CULTIVAR : ENTRY 9          ECOTYPE :CI0800
 STARTING DATE  : SEP  1 2022
 PLANTING DATE  : NOV 23 2022      PLANTS/m2 :   137.0    ROW SPACING :  20.cm
 WEATHER        : CIOB   2022
 SOIL           : CCENEB2301     TEXTURE : C     -   CIMMYT CENEB 710
 SOIL INIT COND : DEPTH:120cm EXTR. H2O: 82.8mm  NO3:484.0kg/ha  NH4:341.8kg/ha
 WATER BALANCE  : IRRIGATE ON REPORTED DATE(S)
 IRRIGATION     :      525 mm IN     9 APPLICATIONS
 NITROGEN BAL.  : SOIL-N & N-UPTAKE SIMULATION; NO N-FIXATION
 N-FERTILIZER   :      323 kg/ha IN     3 APPLICATIONS
 RESIDUE/MANURE : INITIAL :     0 kg/ha ;    2222 kg/ha IN     1 APPLICATIONS
 ENVIRONM. OPT. : DAYL=    0.00  SRAD=    0.00  TMAX=    0.00  TMIN=    0.00
                  RAIN=    0.00  CO2 =    0.00  DEW =    0.00  WIND=    0.00
 SIMULATION OPT : WATER   :Y  NITROGEN:Y  N-FIX:N  PHOSPH :N  PESTS  :N
                  PHOTO   :C  ET      :R  INFIL:S  HYDROL :R  SOM    :G
                  CO2 418ppm  NSWIT   :1  EVAP :R  SOIL   :2  STEMP  :D
 MANAGEMENT OPT : PLANTING:R  IRRIG   :R  FERT :R  RESIDUE:R  HARVEST:M
                  WEATHER :M  TILLAGE :Y

*SUMMARY OF SOIL AND GENETIC INPUT PARAMETERS

   SOIL LOWER UPPER   SAT  EXTR  INIT   ROOT   BULK     pH    NO3    NH4    ORG
  DEPTH LIMIT LIMIT    SW    SW    SW   DIST   DENS                          C
   cm   cm3/cm3    cm3/cm3    cm3/cm3         g/cm3         ugN/g  ugN/g     %
-------------------------------------------------------------------------------
  0-  5 0.143 0.204 0.268 0.061 0.172   1.00   1.35   8.50  29.00  29.00   1.08
  5- 15 0.143 0.204 0.268 0.061 0.172   1.00   1.35   8.50  29.00  29.00   1.08
 15- 30 0.143 0.204 0.268 0.061 0.172   1.00   1.35   8.50  29.00  29.00   1.08
 30- 45 0.166 0.234 0.274 0.068 0.225   0.41   1.58   8.50  27.00  16.00   0.80
 45- 60 0.166 0.234 0.274 0.068 0.225   0.41   1.58   8.50  27.00  16.00   0.80
 60- 90 0.155 0.227 0.276 0.072 0.207   0.22   1.50   7.90  53.00  33.00   0.87
 90-120 0.188 0.263 0.308 0.075 0.263   0.12   1.38   8.00   0.01   0.01   0.40

TOT-120  19.6  27.8  33.8   8.3  26.0  <--cm   -  kg/ha-->  484.0  341.8 137370
SOIL ALBEDO    : 0.13      EVAPORATION LIMIT : 6.00         MIN. FACTOR  : 1.00
RUNOFF CURVE # :61.00      DRAINAGE RATE     : 0.60         FERT. FACTOR : 1.00

 Wheat            CULTIVAR: 474804-ENTRY 9            ECOTYPE: CI0800
   P1V   P1D    P5    G1    G2    G3 PHINT
   2.0  39.1 575.1  20.6  42.5  3.97 102.4


*SIMULATED CROP AND SOIL STATUS AT MAIN DEVELOPMENT STAGES
  
 RUN NO.      9   ROOTS ANATOMY                                               

 ...... DATE ......  GROWTH STAGE BIOMASS   LEAF       CROP N      STRESS
 YEARDOY DOM MON DAP ............. kg/ha AREA NUMBER  kg/ha   %   H2O    N
 2022327  23 Nov   0 7 Sowing         0  0.00   0.0     0   0.0  0.00  0.00
 2022328  24 Nov   1 8 Germinate      0  0.00   0.0     0   0.0  0.00  0.00
 2022330  26 Nov   3 9 Emergence      0  0.00   0.0     0   0.0  0.00  0.00
 2023031  31 Jan  69 1 Term Spklt  2128  3.50  11.7   100   4.7  0.26  0.07
 2023049  18 Feb  87 2 End Veg     3982  5.77  14.4   134   3.4  0.04  0.00
 2023062   3 Mar 100 3 End Ear Gr  7086  4.84  14.4   130   1.8  0.00  0.00
 2023076  17 Mar 114 4 Beg Gr Fil 11134  3.96  14.4   129   1.2  0.10  0.00
 2023106  16 Apr 144 5 End Gr Fil 19674  0.40  14.4   183   0.9  0.21  0.00
 2023106  16 Apr 144 6 Harvest    19674  0.40  14.4   183   0.9  0.56  0.00
  

*MAIN GROWTH AND DEVELOPMENT VARIABLES

@     VARIABLE                             SIMULATED     MEASURED
      --------                             ---------     --------
      Emergence (DAP)                            3            7
      Anthesis (DAP)                           102          101
      Maturity (DAP)                           144          145
      Product wt (kg dm/ha;no loss)           6592         6560
      Product unit weight (g dm)             0.043        0.043
      Product number (no/m2)                 15510        15412
      Product number (no/group)               22.0        -99.0
      Product harvest index (ratio)           0.34         0.33
      Maximum leaf area index                  5.8          5.8
      Final leaf number (one axis)            14.4        -99.0
      Final shoot number (#/m2)                704          -99
      Canopy (tops) wt (kg dm/ha)            19674        20154
      Vegetative wt (kg dm/ha)               13083        13594
      Root wt (kg dm/ha)                      1075          -99
      Assimilate wt (kg dm/ha)               21842          -99
      Senesced wt (kg dm/ha)                   374          -99
      Reserves wt (kg dm/ha)                  7258          -99
      N uptake (kg/ha)                       205.0        -99.0
      N senesced (kg/ha)                       5.2        -99.0
      Above-ground N (kg/ha)                 183.0        -99.0
      Root N (kg/ha)                          17.6        -99.0
      Vegetative N (kg/ha)                    39.4        -99.0
      Product N (kg/ha)                      143.6        131.8
      Product N harvest index (ratio)         0.78       -99.00
      Product N (%)                            2.2          2.0
      Vegetative N (%)                         0.3        -99.0
[...]
   Dry Matter Productivity                  4.82 kg[DM]/m3[rain]          =   48.2 kg[DM]/ha per mm[rain]
   Yield Productivity                       1.64 kg[grain yield]/m3[rain] =   16.4 kg[yield]/ha per mm[rain]

 Evapotranspiration during growth season   110.8 mm[ET]
   Dry Matter Productivity                  3.83 kg[DM]/m3[ET]            =   38.3 kg[DM]/ha per mm[ET]
   Yield Productivity                       1.30 kg[grain yield]/m3[ET]   =   13.0 kg[yield]/ha per mm[ET]

 Transpiration during growth season         74.7 mm[EP]
   Dry Matter Productivity                  5.68 kg[DM]/m3[EP]            =   56.8 kg[DM]/ha per mm[EP]
   Yield Productivity                       1.93 kg[grain yield]/m3[EP]   =   19.3 kg[yield]/ha per mm[EP]

 Irrigation during growing season          120.0 mm[irrig]
   Dry Matter Productivity                  3.54 kg[DM]/m3[irrig]         =   35.4 kg[DM]/ha per mm[irrig]
   Yield Productivity                       1.20 kg[grain yield]/m3[irrig]=   12.0 kg[yield]/ha per mm[irrig]

 N applied during growing season           173.0 kg[N applied]/ha
   Dry Matter Productivity                  24.5 kg[DM]/kg[N applied]
   Yield Productivity                        8.3 kg[yield]/kg[N applied]

 N uptake during growing season             48.6 kg[N uptake]/ha
   Dry Matter Productivity                  87.3 kg[DM]/kg[N uptake]
   Yield Productivity                       29.7 kg[yield]/kg[N uptake]

--------------------------------------------------------------------------------------------------------------

          WHEAT YIELD :     1445 kg/ha    [Dry weight] 

**************************************************************************************************************
  

*DSSAT Cropping System Model Ver. 4.8.2.000 -release  JUN 25, 2025 11:08:24

*RUN  69        : DR23_G-13                 CSCER048 CIOB2302   13
 MODEL          : CSCER048 - Wheat
 EXPERIMENT     : CIOB2302 WH ROOTS ANATOMY DROUGHT
 DATA PATH      : C:\DSSAT48\Wheat\
 TREATMENT 13   : DR23_G-13                 CSCER048


 CROP           : Wheat            CULTIVAR : ENTRY 13         ECOTYPE :CI0802
 STARTING DATE  : SEP  1 2022
 PLANTING DATE  : DEC  3 2022      PLANTS/m2 :   150.0    ROW SPACING :  36.cm
 WEATHER        : CIOB   2022
 SOIL           : CCENEB2301     TEXTURE : C     -   CIMMYT CENEB 710
 SOIL INIT COND : DEPTH:120cm EXTR. H2O: 82.8mm  NO3:252.3kg/ha  NH4:205.5kg/ha
 WATER BALANCE  : IRRIGATE ON REPORTED DATE(S)
 IRRIGATION     :      120 mm IN     1 APPLICATIONS
 NITROGEN BAL.  : SOIL-N & N-UPTAKE SIMULATION; NO N-FIXATION
 N-FERTILIZER   :      173 kg/ha IN     2 APPLICATIONS
 RESIDUE/MANURE : INITIAL :     0 kg/ha ;    2222 kg/ha IN     1 APPLICATIONS
 ENVIRONM. OPT. : DAYL=    0.00  SRAD=    0.00  TMAX=    0.00  TMIN=    0.00
                  RAIN=    0.00  CO2 =    0.00  DEW =    0.00  WIND=    0.00
 SIMULATION OPT : WATER   :Y  NITROGEN:Y  N-FIX:N  PHOSPH :N  PESTS  :N
                  PHOTO   :C  ET      :R  INFIL:S  HYDROL :R  SOM    :G
                  CO2 418ppm  NSWIT   :1  EVAP :R  SOIL   :2  STEMP  :D
 MANAGEMENT OPT : PLANTING:R  IRRIG   :R  FERT :R  RESIDUE:R  HARVEST:M
                  WEATHER :M  TILLAGE :Y

*SUMMARY OF SOIL AND GENETIC INPUT PARAMETERS

   SOIL LOWER UPPER   SAT  EXTR  INIT   ROOT   BULK     pH    NO3    NH4    ORG
  DEPTH LIMIT LIMIT    SW    SW    SW   DIST   DENS                          C
   cm   cm3/cm3    cm3/cm3    cm3/cm3         g/cm3         ugN/g  ugN/g     %
-------------------------------------------------------------------------------
  0-  5 0.143 0.204 0.268 0.061 0.204   1.00   1.35   8.80  19.00  12.00   1.10
  5- 15 0.143 0.204 0.268 0.061 0.204   1.00   1.35   8.80  19.00  12.00   1.10
 15- 30 0.143 0.204 0.268 0.061 0.204   1.00   1.35   8.80  19.00  12.00   1.10
 30- 45 0.166 0.234 0.274 0.068 0.230   0.41   1.58   8.50  18.00  16.00   0.40
 45- 60 0.166 0.234 0.274 0.068 0.230   0.41   1.58   8.50  18.00  16.00   0.40
 60- 90 0.155 0.227 0.276 0.072 0.230   0.22   1.50   8.50  20.00  18.00   0.40
 90-120 0.188 0.263 0.308 0.075 0.263   0.12   1.38   8.00   0.01   0.01   0.40

TOT-120  19.6  27.8  33.8   8.3  27.8  <--cm   -  kg/ha-->  252.3  205.5  98070
SOIL ALBEDO    : 0.13      EVAPORATION LIMIT : 6.00         MIN. FACTOR  : 1.00
RUNOFF CURVE # :61.00      DRAINAGE RATE     : 0.60         FERT. FACTOR : 1.00

 Wheat            CULTIVAR: 542933-ENTRY 13           ECOTYPE: CI0802
   P1V   P1D    P5    G1    G2    G3 PHINT
   2.0  45.4 574.4  18.1  53.7  7.00 102.5


*SIMULATED CROP AND SOIL STATUS AT MAIN DEVELOPMENT STAGES
  
 RUN NO.     69   ROOTS ANATOMY DROUGHT                                       

 ...... DATE ......  GROWTH STAGE BIOMASS   LEAF       CROP N      STRESS
 YEARDOY DOM MON DAP ............. kg/ha AREA NUMBER  kg/ha   %   H2O    N
 2022337   3 Dec   0 7 Sowing         0  0.00   0.0     0   0.0  0.00  0.00
 2022338   4 Dec   1 8 Germinate      0  0.00   0.0     0   0.0  0.00  0.00
 2022339   5 Dec   2 9 Emergence      0  0.00   0.0     0   0.0  0.00  0.00
 2023030  30 Jan  58 1 Term Spklt   676  1.12   9.8    31   4.5  0.44  0.09
 2023048  17 Feb  76 2 End Veg     1012  1.44  12.5    32   3.2  0.61  0.00
 2023061   2 Mar  89 3 End Ear Gr  1524  0.97  12.5    31   2.0  0.52  0.00
 2023075  16 Mar 103 4 Beg Gr Fil  1932  0.60  12.5    31   1.6  0.72  0.00
 2023105  15 Apr 133 5 End Gr Fil  4201  0.23  12.5    41   1.0  0.15  0.00
 2023105  15 Apr 133 6 Harvest     4201  0.23  12.5    41   1.0  0.31  0.00
  

*MAIN GROWTH AND DEVELOPMENT VARIABLES

@     VARIABLE                             SIMULATED     MEASURED
      --------                             ---------     --------
      Emergence (DAP)                            2            6
      Anthesis (DAP)                            93           86
      Maturity (DAP)                           133          118
      Product wt (kg dm/ha;no loss)           1521         3437
      Product unit weight (g dm)             0.054        0.039
      Product number (no/m2)                  2833         8856
      Product number (no/group)                7.3        -99.0
      Product harvest index (ratio)           0.36         0.41
      Maximum leaf area index                  1.4          4.6
      Final leaf number (one axis)            12.5        -99.0
      Final shoot number (#/m2)                389          -99
      Canopy (tops) wt (kg dm/ha)             4201         8377
      Vegetative wt (kg dm/ha)                2679         4940
      Root wt (kg dm/ha)                       353          -99
      Assimilate wt (kg dm/ha)                5040          -99
      Senesced wt (kg dm/ha)                   303          -99
      Reserves wt (kg dm/ha)                  1555          -99
      N uptake (kg/ha)                        50.0        -99.0
      N senesced (kg/ha)                       4.2        -99.0
      Above-ground N (kg/ha)                  41.3        -99.0
      Root N (kg/ha)                           5.9        -99.0
      Vegetative N (kg/ha)                     8.8        -99.0
      Product N (kg/ha)                       32.5         68.3
      Product N harvest index (ratio)         0.79       -99.00
      Product N (%)                            2.1          2.0
      Vegetative N (%)                         0.3        -99.0
      Leaf+stem wt,anthesis (kg dm/ha)        1654          -99
      Leaf+stem N,anthesis (kg/ha)            31.0        -99.0
      Leaf N,anthesis (%)                      3.0        -99.0

*ENVIRONMENTAL AND STRESS FACTORS

 |-----Development Phase------|-------------Environment--------------|----------------Stress-----------------|
                              |--------Average-------|---Cumulative--|         (0=Min, 1=Max Stress)         |
                         Time  Temp  Temp Solar Photop         Evapo |----Water---|--Nitrogen--|--Phosphorus-|
                         Span   Max   Min   Rad  [day]   Rain  Trans  Photo         Photo         Photo
                         days    °C    °C MJ/m2     hr     mm     mm  synth Growth ' synth Growth  synth Growth
--------------------------------------------------------------------------------------------------------------
 Germinate  - Term Spklt   56  25.6   6.5  14.4  11.36   10.0   33.6  0.442  0.554  0.091  0.091 -99.00 -99.00
 Term Spklt - End Veg      18  25.1   5.7  15.7  11.83    3.6   13.5  0.611  0.701  0.000  0.000 -99.00 -99.00
 End Veg    - End Ear Gr   13  23.4   8.5  15.6  12.18    8.7   14.6  0.523  0.622  0.000  0.000 -99.00 -99.00
 End Ear Gr - Beg Gr Fil   14  29.5   7.7  21.3  12.53    0.0    6.6  0.720  0.785  0.000  0.000 -99.00 -99.00
 Beg Gr Fil - End Gr Fil   30  29.0   8.8  23.6  13.14   65.8   41.8  0.150  0.236  0.000  0.000 -99.00 -99.00
  
 Germinate  - End Gr Fil  131  26.5   7.3  17.5  12.04   88.1  110.2  0.436  0.533  0.039  0.039 -99.00 -99.00
--------------------------------------------------------------------------------------------------------------


*RESOURCE PRODUCTIVITY

 Growing season length: 131 days 

 Precipitation during growth season         88.1 mm[rain]
   Dry Matter Productivity                  4.77 kg[DM]/m3[rain]          =   47.7 kg[DM]/ha per mm[rain]
   Yield Productivity                       1.73 kg[grain yield]/m3[rain] =   17.3 kg[yield]/ha per mm[rain]

 Evapotranspiration during growth season   110.2 mm[ET]
   Dry Matter Productivity                  3.81 kg[DM]/m3[ET]            =   38.1 kg[DM]/ha per mm[ET]
   Yield Productivity                       1.38 kg[grain yield]/m3[ET]   =   13.8 kg[yield]/ha per mm[ET]

 Transpiration during growth season         74.1 mm[EP]
   Dry Matter Productivity                  5.67 kg[DM]/m3[EP]            =   56.7 kg[DM]/ha per mm[EP]
   Yield Productivity                       2.05 kg[grain yield]/m3[EP]   =   20.5 kg[yield]/ha per mm[EP]

 Irrigation during growing season          120.0 mm[irrig]
   Dry Matter Productivity                  3.50 kg[DM]/m3[irrig]         =   35.0 kg[DM]/ha per mm[irrig]
   Yield Productivity                       1.27 kg[grain yield]/m3[irrig]=   12.7 kg[yield]/ha per mm[irrig]

 N applied during growing season           173.0 kg[N applied]/ha
   Dry Matter Productivity                  24.3 kg[DM]/kg[N applied]
   Yield Productivity                        8.8 kg[yield]/kg[N applied]

 N uptake during growing season             50.0 kg[N uptake]/ha
   Dry Matter Productivity                  84.0 kg[DM]/kg[N uptake]
   Yield Productivity                       30.4 kg[yield]/kg[N uptake]

--------------------------------------------------------------------------------------------------------------

          WHEAT YIELD :     1521 kg/ha    [Dry weight] 

**************************************************************************************************************
  

*DSSAT Cropping System Model Ver. 4.8.2.000 -release  JUN 25, 2025 11:08:25

*RUN  70        : DR23_G-14                 CSCER048 CIOB2302   14
 MODEL          : CSCER048 - Wheat
 EXPERIMENT     : CIOB2302 WH ROOTS ANATOMY DROUGHT
 DATA PATH      : C:\DSSAT48\Wheat\
 TREATMENT 14   : DR23_G-14                 CSCER048


 CROP           : Wheat            CULTIVAR : ENTRY 14         ECOTYPE :CI0802
 STARTING DATE  : SEP  1 2022
 PLANTING DATE  : DEC  3 2022      PLANTS/m2 :   150.0    ROW SPACING :  36.cm
 WEATHER        : CIOB   2022
 SOIL           : CCENEB2301     TEXTURE : C     -   CIMMYT CENEB 710
 SOIL INIT COND : DEPTH:120cm EXTR. H2O: 82.8mm  NO3:252.3kg/ha  NH4:205.5kg/ha
 WATER BALANCE  : IRRIGATE ON REPORTED DATE(S)
 IRRIGATION     :      120 mm IN     1 APPLICATIONS
 NITROGEN BAL.  : SOIL-N & N-UPTAKE SIMULATION; NO N-FIXATION
 N-FERTILIZER   :      173 kg/ha IN     2 APPLICATIONS
 RESIDUE/MANURE : INITIAL :     0 kg/ha ;    2222 kg/ha IN     1 APPLICATIONS
 ENVIRONM. OPT. : DAYL=    0.00  SRAD=    0.00  TMAX=    0.00  TMIN=    0.00
                  RAIN=    0.00  CO2 =    0.00  DEW =    0.00  WIND=    0.00
 SIMULATION OPT : WATER   :Y  NITROGEN:Y  N-FIX:N  PHOSPH :N  PESTS  :N
                  PHOTO   :C  ET      :R  INFIL:S  HYDROL :R  SOM    :G
                  CO2 418ppm  NSWIT   :1  EVAP :R  SOIL   :2  STEMP  :D
 MANAGEMENT OPT : PLANTING:R  IRRIG   :R  FERT :R  RESIDUE:R  HARVEST:M
                  WEATHER :M  TILLAGE :Y

*SUMMARY OF SOIL AND GENETIC INPUT PARAMETERS

   SOIL LOWER UPPER   SAT  EXTR  INIT   ROOT   BULK     pH    NO3    NH4    ORG
  DEPTH LIMIT LIMIT    SW    SW    SW   DIST   DENS                          C
   cm   cm3/cm3    cm3/cm3    cm3/cm3         g/cm3         ugN/g  ugN/g     %
-------------------------------------------------------------------------------
  0-  5 0.143 0.204 0.268 0.061 0.204   1.00   1.35   8.80  19.00  12.00   1.10
  5- 15 0.143 0.204 0.268 0.061 0.204   1.00   1.35   8.80  19.00  12.00   1.10
 15- 30 0.143 0.204 0.268 0.061 0.204   1.00   1.35   8.80  19.00  12.00   1.10
 30- 45 0.166 0.234 0.274 0.068 0.230   0.41   1.58   8.50  18.00  16.00   0.40
 45- 60 0.166 0.234 0.274 0.068 0.230   0.41   1.58   8.50  18.00  16.00   0.40
 60- 90 0.155 0.227 0.276 0.072 0.230   0.22   1.50   8.50  20.00  18.00   0.40
 90-120 0.188 0.263 0.308 0.075 0.263   0.12   1.38   8.00   0.01   0.01   0.40

TOT-120  19.6  27.8  33.8   8.3  27.8  <--cm   -  kg/ha-->  252.3  205.5  98070
SOIL ALBEDO    : 0.13      EVAPORATION LIMIT : 6.00         MIN. FACTOR  : 1.00
RUNOFF CURVE # :61.00      DRAINAGE RATE     : 0.60         FERT. FACTOR : 1.00

 Wheat            CULTIVAR: 589328-ENTRY 14           ECOTYPE: CI0802
   P1V   P1D    P5    G1    G2    G3 PHINT
   2.0  37.8 593.0  24.3  44.0  8.00 148.9


*SIMULATED CROP AND SOIL STATUS AT MAIN DEVELOPMENT STAGES
  
 RUN NO.     70   ROOTS ANATOMY DROUGHT                                       

 ...... DATE ......  GROWTH STAGE BIOMASS   LEAF       CROP N      STRESS
 YEARDOY DOM MON DAP ............. kg/ha AREA NUMBER  kg/ha   %   H2O    N
 2022337   3 Dec   0 7 Sowing         0  0.00   0.0     0   0.0  0.00  0.00
 2022338   4 Dec   1 8 Germinate      0  0.00   0.0     0   0.0  0.00  0.00
 2022339   5 Dec   2 9 Emergence      0  0.00   0.0     0   0.0  0.00  0.00
 2023027  27 Jan  55 1 Term Spklt   639  1.15   6.7    30   4.6  0.46  0.10
 2023045  14 Feb  73 2 End Veg     1006  1.57   8.6    33   3.2  0.62  0.00
 2023058  27 Feb  86 3 End Ear Gr  1513  1.05   8.6    32   2.1  0.58  0.00
 2023073  14 Mar 101 4 Beg Gr Fil  1972  0.67   8.6    31   1.6  0.68  0.00
 2023104  14 Apr 132 5 End Gr Fil  4259  0.23   8.6    45   1.1  0.21  0.00
 2023104  14 Apr 132 6 Harvest     4259  0.23   8.6    45   1.1  0.29  0.00
  

*MAIN GROWTH AND DEVELOPMENT VARIABLES

@     VARIABLE                             SIMULATED     MEASURED
      --------                             ---------     --------
      Emergence (DAP)                            2            6
      Anthesis (DAP)                            91           83
      Maturity (DAP)                           132          114
      Product wt (kg dm/ha;no loss)           1676         3107
      Product unit weight (g dm)             0.044        0.034
      Product number (no/m2)                  3810         9175
      Product number (no/group)               12.0        -99.0
      Product harvest index (ratio)           0.39         0.44
      Maximum leaf area index                  1.6          4.3
      Final leaf number (one axis)             8.6        -99.0
      Final shoot number (#/m2)                317          -99
      Canopy (tops) wt (kg dm/ha)             4259         7086
      Vegetative wt (kg dm/ha)                2583         3979
      Root wt (kg dm/ha)                       343          -99
      Assimilate wt (kg dm/ha)                5012          -99
      Senesced wt (kg dm/ha)                   234          -99
      Reserves wt (kg dm/ha)                  1436          -99
      N uptake (kg/ha)                        52.4        -99.0
      N senesced (kg/ha)                       3.2        -99.0
      Above-ground N (kg/ha)                  44.9        -99.0
      Root N (kg/ha)                           5.8        -99.0
      Vegetative N (kg/ha)                     8.8        -99.0
      Product N (kg/ha)                       36.1         59.1
      Product N harvest index (ratio)         0.80       -99.00
      Product N (%)                            2.2          1.9
      Vegetative N (%)                         0.3        -99.0
      Leaf+stem wt,anthesis (kg dm/ha)        1687          -99
      Leaf+stem N,anthesis (kg/ha)            31.3        -99.0
      Leaf N,anthesis (%)                      3.0        -99.0

*ENVIRONMENTAL AND STRESS FACTORS

 |-----Development Phase------|-------------Environment--------------|----------------Stress-----------------|
                              |--------Average-------|---Cumulative--|         (0=Min, 1=Max Stress)         |
                         Time  Temp  Temp Solar Photop         Evapo |----Water---|--Nitrogen--|--Phosphorus-|
                         Span   Max   Min   Rad  [day]   Rain  Trans  Photo         Photo         Photo
                         days    °C    °C MJ/m2     hr     mm     mm  synth Growth ' synth Growth  synth Growth
--------------------------------------------------------------------------------------------------------------
 Germinate  - Term Spklt   53  25.7   6.6  14.3  11.35   10.0   31.8  0.464  0.571  0.095  0.095 -99.00 -99.00
 Term Spklt - End Veg      18  25.5   5.7  15.6  11.76    0.1   11.0  0.617  0.705  0.000  0.000 -99.00 -99.00
 End Veg    - End Ear Gr   13  23.3   8.2  15.8  12.11   12.1   17.2  0.581  0.671  0.000  0.000 -99.00 -99.00
 End Ear Gr - Beg Gr Fil   15  28.1   7.0  20.4  12.46    0.1    7.3  0.683  0.753  0.000  0.000 -99.00 -99.00
 Beg Gr Fil - End Gr Fil   31  29.0   8.9  23.2  13.09   65.8   42.2  0.210  0.294  0.000  0.000 -99.00 -99.00
  
 Germinate  - End Gr Fil  130  26.5   7.2  17.5  12.03   88.1  109.6  0.462  0.555  0.039  0.039 -99.00 -99.00
--------------------------------------------------------------------------------------------------------------


*RESOURCE PRODUCTIVITY

 Growing season length: 130 days 

 Precipitation during growth season         88.1 mm[rain]
   Dry Matter Productivity                  4.83 kg[DM]/m3[rain]          =   48.3 kg[DM]/ha per mm[rain]
   Yield Productivity                       1.90 kg[grain yield]/m3[rain] =   19.0 kg[yield]/ha per mm[rain]

 Evapotranspiration during growth season   109.6 mm[ET]
   Dry Matter Productivity                  3.89 kg[DM]/m3[ET]            =   38.9 kg[DM]/ha per mm[ET]
   Yield Productivity                       1.53 kg[grain yield]/m3[ET]   =   15.3 kg[yield]/ha per mm[ET]

 Transpiration during growth season         73.7 mm[EP]
   Dry Matter Productivity                  5.78 kg[DM]/m3[EP]            =   57.8 kg[DM]/ha per mm[EP]
   Yield Productivity                       2.28 kg[grain yield]/m3[EP]   =   22.8 kg[yield]/ha per mm[EP]

 Irrigation during growing season          120.0 mm[irrig]
   Dry Matter Productivity                  3.55 kg[DM]/m3[irrig]         =   35.5 kg[DM]/ha per mm[irrig]
   Yield Productivity                       1.40 kg[grain yield]/m3[irrig]=   14.0 kg[yield]/ha per mm[irrig]

 N applied during growing season           173.0 kg[N applied]/ha
   Dry Matter Productivity                  24.6 kg[DM]/kg[N applied]
   Yield Productivity                        9.7 kg[yield]/kg[N applied]

 N uptake during growing season             52.4 kg[N uptake]/ha
   Dry Matter Productivity                  81.2 kg[DM]/kg[N uptake]
   Yield Productivity                       32.0 kg[yield]/kg[N uptake]

--------------------------------------------------------------------------------------------------------------

          WHEAT YIELD :     1676 kg/ha    [Dry weight] 

**************************************************************************************************************
