$GROWTH ASPECTS OUTPUT FILE

*DSSAT Cropping System Model Ver. 4.8.2.000 -release  JUN 25, 2025 11:08:18

*RUN   1        : WW23_G-1                  CSCER048 CIOB2301    1
 MODEL          : CSCER048 - Wheat
 EXPERIMENT     : CIOB2301 WH ROOTS ANATOMY
 DATA PATH      : C:\DSSAT48\Wheat\
 TREATMENT  1   : WW23_G-1                  CSCER048
  
@YEAR DOY   DAS   DAP TMEAN TKILL  GSTD  L#SD PARID PARUD  AWAD  LAID  SAID  CAID  TWAD SDWAD  RWAD  CWAD  LWAD  SWAD  HWAD  HIAD CHWAD  EWAD RSWAD SNWPD SNWLD SNWSD  RS%D  H#AD  HWUD  T#AD  SLAD  RDPD  PTFD  SWXD WAVRD WUPRD  WFTD  WFPD  WFGD  NFTD  NFPD  NFGD NUPRD  TFPD  TFGD VRNFD DYLFD
 2022 327    83     0  17.6  -6.0  0.00  0.00  0.00  0.00   0.0  0.00 0.000  0.00    43    43     0     0     0     0     0  0.00     0     0     0     0     0     0   0.0     0     0   150   -99  0.04  0.00  19.7  99.9  1.00  0.00  0.00  0.00  0.00  0.00  0.00   0.0  0.00  0.00  0.54  0.00
 2022 328    84     1  16.4  -6.0  5.84  0.00  0.00  0.00   0.0  0.00 0.000  0.00    43    43     0     0     0     0     0  0.00     0     0     0     0     0     0   0.0     0     0   150   -99  0.04  0.00   7.2  99.9  1.00  0.00  0.00  0.00  0.00  0.00  0.00   0.0  0.00  0.00  0.54  0.00
 2022 329    85     2  17.4  -6.0  8.40  0.00  0.00  0.00   0.0  0.00 0.000  0.00    43    41     1     0     0     0     0  0.00     0     0     0     0     0     0   0.0     0     0   150   -99  0.07  0.00   4.3  99.9  1.00  0.00  0.00  0.00  0.00  0.00  0.00   0.0  0.00  0.00  0.54  0.00
 2022 330    86     3  18.0  -6.0 10.00  0.00  0.00  0.00   0.0  0.00 0.000  0.00    43    40     3     0     0     0     0  0.00     0     0     0     0     0 .0012   0.0     0     0   150   -99  0.09  0.00   3.6  99.9  1.00  0.00  0.00  0.00  0.00  0.00  0.00   2.0  0.00  0.00  0.54  0.00
 2022 331    87     4  16.3  -6.0 10.32  0.32  0.03  0.00   0.0  0.03 0.003  0.03    43    26     4    13     9     4     0  0.00     0     0     0     0     0 .0033   0.0     0     0   150   350  0.11  0.75   3.7  99.9  1.00  0.00  0.00  0.00  0.00  0.00  0.00   0.1  0.00  0.00  0.54  0.30
 2022 332    88     5  16.1  -6.0 10.63  0.63  0.03  0.48   1.0  0.04 0.004  0.04    43    21     5    17    11     6     0  0.00     0     0     1     0 0.128 .0064   4.5     0     0   150   347  0.14  0.68   4.0  53.6  0.25  1.00  0.75  0.81  0.00  0.00  0.00   0.2  0.00  0.00  0.54  0.31
 2022 333    89     6  18.1  -6.0 10.98  0.98  0.04  0.37   0.9  0.05 0.005  0.05    44    15     6    22    14     8     0  0.00     0     0     2     0 0.293 .0109   7.1     0     0   150   347  0.16  0.68   5.4  55.3  0.25  1.00  0.75  0.80  0.23  0.23  0.23   0.2  0.00  0.00  0.54  0.31
 2022 334    90     7  18.5  -6.0 11.34  1.34  0.05  0.36   1.1  0.06 0.006  0.06    45    11     8    26    16    10     0  0.00     0     0     2     0 0.498 .0167   6.4     0     0   150   347  0.19  0.69   6.9  57.6  0.31  1.00  0.69  0.76  0.38  0.38  0.38   0.3  0.00  0.00  0.54  0.31
 2022 335    91     8  19.2  -6.0 11.71  1.71  0.05  0.36   1.3  0.06 0.006  0.07    46     9     9    28    18    10     0  0.00     0     0     2     0 0.739 .0242   6.3     0     0   150   346  0.22  0.69   8.5  58.6  0.34  1.00  0.66  0.74  0.44  0.44  0.44   0.7  0.00  0.00  0.54  0.31
 2022 336    92     9  23.0  -6.0 12.08  2.08  0.05  0.38   1.4  0.06 0.006  0.07    47     9     9    29    18    11     0  0.00     0     0     2     0     1 .0340   6.4     0     0   150   345  0.25  0.69  10.4  65.6  0.34  1.00  0.66  0.73  0.41  0.41  0.41   1.2  0.00  0.20  0.54  0.31
 2022 337    93    10  23.0  -6.0 12.30  2.30  0.05  0.44   1.6  0.06 0.006  0.07    48     9     9    30    19    11     0  0.00     0     0     2     0 1.267 .0443   6.5     0     0   150   344  0.29  0.70  12.3  82.7  0.37  1.00  0.63  0.72  0.37  0.37  0.37   1.5  0.00  0.20  0.54  0.31
 2022 338    94    11  22.0  -6.0 12.51  2.51  0.05  0.48   1.7  0.07 0.007  0.07    49     9    10    31    19    11     0  0.00     0     0     2     0 1.543 .0545   6.6     0     0   150   343  0.32  0.70  14.2  98.2  0.38  1.00  0.62  0.71  0.33  0.33  0.33   1.6  0.00  0.13  0.54  0.31
 2022 339    95    12  22.2  -6.0 12.73  2.73  0.06  1.23   1.8  0.07 0.007  0.08    51     9    10    32    20    12     0  0.00     0     0     2     0 1.543 .0652   5.7     0     0   195   342  0.35  0.73  16.2  99.9  0.92  0.17  0.08  0.29  0.30  0.30  0.30   1.6  0.00  0.15  0.54  0.31
 2022 340    96    13  19.7  -6.0 12.92  2.92  0.06  1.40   1.6  0.07 0.007  0.08    52     9    10    33    21    12     0  0.00     0     0     2     0 1.543 .0749   5.0     0     0   237   341  0.37  0.74  19.3  99.9  1.29  0.00  0.00  0.01  0.27  0.27  0.27   1.6  0.00  0.00  0.54  0.31
 2022 341    97    14  20.0  -6.0 13.11  3.11  0.06  1.17   2.3  0.08 0.008  0.08    54     9    10    35    23    12     0  0.00     0     0     2     0 1.543 .0850   4.4     0     0   273   340  0.39  0.74  19.8  99.9  0.81  0.38  0.19  0.38  0.24  0.24  0.24   1.5  0.00  0.00  0.54  0.31
 2022 342    98    15  20.8  -6.0 13.31  3.31  0.06  0.54   2.3  0.08 0.008  0.09    56     9    11    36    23    13     0  0.00     0     0     2     0 1.873 .0959   4.8     0     0   273   339  0.41  0.70  20.5  99.9  0.36  1.00  0.64  0.72  0.21  0.21  0.21   1.5  0.00  0.05  0.54  0.31
 2022 343    99    16  18.0  -6.0 13.49  3.49  0.07  0.53   2.6  0.08 0.008  0.09    58     9    11    38    24    14     0  0.00     0     0     2     0 2.214 0.106   5.1     0     0   273   338  0.42  0.70  21.5  99.9  0.34  1.00  0.66  0.73  0.19  0.19  0.19   1.7  0.00  0.00  0.54  0.31
 2022 344   100    17  17.0  -6.0 13.65  3.65  0.07  0.54   2.9  0.08 0.009  0.09    60     9    12    39    25    14     0  0.00     0     0     2     0 2.567 0.115   5.3     0     0   273   336  0.44  0.70  22.5  99.9  0.34  1.00  0.66  0.74  0.17  0.17  0.17   1.7  0.00  0.00  0.54  0.31
 2022 345   101    18  16.2  -6.0 13.81  3.81  0.07  0.60   3.2  0.09 0.009  0.10    62     9    12    41    26    15     0  0.00     0     0     2     0 2.934 0.125   5.6     0     0   273   335  0.45  0.70  23.4  99.9  0.37  1.00  0.63  0.72  0.15  0.15  0.15   1.7  0.00  0.00  0.54  0.31
 2022 346   102    19  16.1  -6.0 13.97  3.97  0.07  0.64   3.5  0.09 0.009  0.10    65     9    13    43    28    16     0  0.00     0     0     2     0 3.317 0.135   5.7     0     0   273   334  0.47  0.71  24.4  99.9  0.38  1.00  0.62  0.71  0.13  0.13  0.13   1.6  0.00  0.00  0.54  0.31
 2022 347   103    20  15.1  -6.0 14.11  4.11  0.08  0.73   4.0  0.10 0.010  0.11    68     9    14    46    29    17     0  0.00     0     0     3     0 3.718 0.145   5.8     0     0   273   333  0.48  0.71  71.8  99.9  0.43  1.00  0.57  0.67  0.11  0.11  0.11   1.4  0.00  0.00  0.54  0.31
 2022 348   104    21  15.2  -6.0 21.08  4.26  0.09  1.72  10.7  0.11 0.011  0.12    76     9    15    52    32    20     0  0.00     0     0     4     0 5.327 0.155   7.9     0     0   313   329  0.50  0.76  54.8  99.9  1.69  0.00  0.00  0.00  0.10  0.10  0.10   1.5  0.00  0.00  0.54  0.31
 2022 349   105    22  14.6  -6.0 21.35  4.40  0.10  1.76  11.7  0.12 0.013  0.13    85     9    17    60    36    23     0  0.00     0     0     5     0 6.892 0.166   9.1     0     0   352   327  0.51  0.76  39.5  99.9  1.85  0.00  0.00  0.00  0.07  0.07  0.07   1.8  0.00  0.00  0.53  0.31
 2022 350   106    23  12.5  -6.0 21.57  4.52  0.10  1.80   7.3  0.12 0.013  0.14    90     9    18    64    38    26     0  0.00     0     0     6     0 8.238 0.177   9.9     0     0   386   325  0.52  0.76  33.3  99.9  2.19  0.00  0.00  0.00  0.06  0.06  0.06   2.0  0.00  0.00  0.44  0.32
 2022 351   107    24  14.9  -6.0 21.85  4.67  0.11  1.82  13.4  0.14 0.015  0.15   101     9    20    73    43    29     0  0.00     0     0     8     0 9.855 0.190  10.3     0     0   427   323  0.53  0.76  31.3  99.9  1.20  0.00  0.00  0.08  0.05  0.05  0.05   0.8  0.00  0.00  0.44  0.32
 2022 352   108    25  15.5  -6.0 22.13  4.82  0.13  1.80  14.8  0.16 0.017  0.18   113     9    22    83    50    33     0  0.00     0     0     8     0 10.98 0.206   9.8     0     0   470   321  0.55  0.76  31.6  99.9  1.09  0.00  0.00  0.16  0.06  0.06  0.06   0.9  0.00  0.00  0.44  0.32
 2022 353   109    26  14.8  -6.0 22.39  4.96  0.15  1.71  16.1  0.19 0.020  0.21   128     9    24    95    58    37     0  0.00     0     0     8     0 10.98 0.222   7.9     0     0   508   320  0.56  0.77  32.1  95.5  0.95  0.09  0.05  0.27  0.06  0.06  0.06   0.8  0.00  0.00  0.43  0.32
 2022 354   110    27  16.6  -6.0 22.67  5.12  0.16  1.65  16.5  0.21 0.023  0.24   143     9    26   108    67    41     0  0.00     0     0     7     0 10.98 0.242   6.5     0     0   550   318  0.58  0.76  32.8  89.5  0.93  0.14  0.07  0.28  0.07  0.07  0.07   0.8  0.00  0.00  0.43  0.32
 2022 355   111    28  15.2  -6.0 22.84  5.27  0.18  1.40  17.6  0.24 0.026  0.26   158     9    29   120    75    45     0  0.00     0     0     7     0 11.54 0.262   5.9     0     0   576   317  0.59  0.75  33.3  73.5  0.80  0.40  0.20  0.38  0.08  0.08  0.08   0.8  0.00  0.00  0.43  0.32
 2022 356   112    29  15.3  -6.0 23.00  5.42  0.20  1.33  18.7  0.26 0.029  0.29   174     9    32   134    84    50     0  0.00     0     0     7     0 12.10 0.284   5.4     0     0   600   315  0.61  0.75  33.8  66.4  0.77  0.47  0.23  0.41  0.09  0.09  0.09   0.9  0.00  0.00  0.43  0.32
 2022 357   113    30  15.9  -6.0 23.23  5.57  0.22  1.31  20.0  0.29 0.033  0.33   192     9    35   148    94    55     0  0.00     0     0     7     0 12.70 0.310   5.0     0     0   634   314  0.62  0.75  34.3  61.0  0.75  0.51  0.25  0.43  0.08  0.08  0.08   1.0  0.00  0.00  0.43  0.32
 2022 358   114    31  16.2  -6.0 23.44  5.73  0.24  1.28  21.7  0.32 0.036  0.36   211     9    38   164   104    60     0  0.00     0     0     8     0 13.30 0.338   4.7     0     0   666   312  0.64  0.75  34.8  56.1  0.73  0.55  0.27  0.44  0.07  0.07  0.07   1.0  0.00  0.00  0.43  0.32
 2022 359   115    32  17.8  -6.0 23.61  5.90  0.26  1.20  22.2  0.35 0.040  0.39   230     9    41   180   114    66     0  0.00     0     0     8     0 13.96 0.372   4.4     0     0   692   311  0.65  0.74  35.3  50.0  0.67  0.66  0.33  0.49  0.06  0.06  0.06   1.0  0.00  0.00  0.50  0.32
 2022 360   116    33  17.0  -6.0 23.76  6.06  0.28  1.17  23.8  0.39 0.044  0.43   250     9    45   197   125    72     0  0.00     0     0     8     0 14.60 0.407   4.2     0     0   714   310  0.66  0.74  35.8  46.9  0.65  0.71  0.35  0.50  0.05  0.05  0.05   1.1  0.00  0.00  0.50  0.32
 2022 361   117    34  17.5  -6.0 23.88  6.23  0.30  1.14  24.6  0.42 0.048  0.47   272     9    49   214   137    78     0  0.00     0     0     8     0 15.17 0.447   3.9     0     0   732   309  0.68  0.74  36.2  44.0  0.62  0.76  0.38  0.52  0.04  0.04  0.04   1.1  0.00  0.00  0.54  0.32
 2022 362   118    35  16.6  -6.0 24.35  6.39  0.32  1.84  26.7  0.46 0.052  0.51   296     9    53   234   150    85     0  0.00     0     0     9     0 15.72 0.487   3.7     0     0   802   307  0.69  0.77  36.6  69.0  1.00  0.01  0.00  0.23  0.03  0.03  0.03   1.1  0.00  0.00  0.54  0.32
 2022 363   119    36  17.2  -6.0 24.83  6.56  0.33  1.86  12.6  0.48 0.055  0.53   306     9    54   244   156    88     0  0.00     0     0     9     0 16.28 0.532   3.5     0     0   875   307  0.70  0.78  37.5  99.9  2.20  0.00  0.00  0.00  0.02  0.02  0.02   2.0  0.00  0.00  0.54  0.32
 2022 364   120    37  18.6  -6.0 24.92  6.74  0.35  1.08  26.3  0.50 0.058  0.56   327     9    58   260   165    95     0  0.00     0     0    11     0 19.14 0.583   4.3     0     0   888   305  0.72  0.74  38.1  41.0  0.58  0.84  0.42  0.55  0.02  0.02  0.02   1.2  0.00  0.00  0.54  0.31
 2022 365   121    38  17.8  -6.0 24.97  6.91  0.36  1.03  27.3  0.53 0.061  0.60   349     9    63   278   175   103     0  0.00     0     0    13     0 21.50 0.635   4.6     0     0   895   304  0.73  0.73  38.5  38.2  0.55  0.91  0.45  0.58  0.01  0.01  0.01   1.5  0.00  0.00  0.54  0.31
 2023   1   122    39  16.6  -6.0 25.10  7.08  0.39  1.20  29.2  0.58 0.067  0.64   375     9    67   300   190   109     0  0.00     0     0    12     0 21.50 0.687   4.1     0     0   915   303  0.75  0.74  38.9  44.0  0.64  0.73  0.36  0.51  0.01  0.01  0.01   1.4  0.00  0.00  0.54  0.31
 2023   2   123    40  15.1  -6.0 25.33  7.22  0.41  1.45  30.8  0.62 0.072  0.69   402     9    71   322   205   117     0  0.00     0     0    13     0 22.45 0.737   3.9     0     0   950   302  0.76  0.76  39.2  52.4  0.77  0.47  0.23  0.41  0.00  0.00  0.00   1.1  0.00  0.00  0.54  0.31
 2023   3   124    41  13.8  -6.0 25.37  7.35  0.42  1.04  32.0  0.65 0.076  0.72   427     9    76   342   215   126     0  0.00     0     0    16     0 26.24 0.787   4.6     0     0   956   301  0.77  0.74  79.8  75.0  0.55  0.90  0.45  0.58  0.00  0.00  0.00   1.2  0.00  0.00  0.50  0.31
 2023   4   125    42  16.3  -6.0 25.84  7.51  0.46  1.90  62.6  0.74 0.087  0.83   484     9    85   391   248   143     0  0.00     0     0    16     0 26.24 0.849   4.0     0     0  1027   299  0.78  0.78  63.0  49.3  1.76  0.00  0.00  0.00  0.00  0.00  0.00   1.5  0.00  0.00  0.50  0.31
 2023   5   126    43  17.6  -6.0 26.36  7.68  0.51  1.90  71.2  0.84 0.100  0.94   549     9    94   447   284   162     0  0.00     0     0    16     0 26.24 0.923   3.5     0     0  1103   297  0.80  0.78  53.8  36.9  1.70  0.00  0.00  0.00  0.00  0.00  0.00   1.3  0.00  0.00  0.53  0.31
 2023   6   127    44  18.3  -6.0 26.89  7.86  0.55  1.90  76.7  0.96 0.114  1.07   619     9   104   507   323   183     0  0.00     0     0    16     0 26.24 1.009   3.2     0     0  1183   296  0.81  0.78  50.1  32.0  1.36  0.00  0.00  0.00  0.00  0.00  0.00   1.0  0.00  0.00  0.53  0.31
 2023   7   128    45  17.7  -6.0 27.40  8.03  0.60  1.90  80.7  1.07 0.129  1.20   692     9   114   570   364   206     0  0.00     0     0    16     0 26.24 1.101   2.9     0     0  1260   295  0.82  0.78  49.0  30.3  1.27  0.00  0.00  0.03  0.00  0.00  0.00   0.9  0.00  0.00  0.53  0.31
 2023   8   129    46  17.3  -6.0 27.90  8.20  0.63  1.89  86.4  1.17 0.142  1.32   766     9   125   632   401   231     0  0.00     0     0    22     0 31.62 1.199   3.5     0     0  1334   293  0.84  0.78  48.2  28.0  1.14  0.00  0.00  0.13  0.01  0.01  0.01   0.9  0.00  0.00  0.53  0.31
 2023   9   130    47  16.6  -6.0 28.33  8.36  0.66  1.78  89.7  1.28 0.156  1.44   842     9   137   697   440   257     0  0.00     0     0    28     0 36.83 1.303   4.0     0     0  1400   291  0.85  0.78  47.4  25.1  0.95  0.09  0.05  0.27  0.02  0.02  0.02   1.0  0.00  0.00  0.53  0.31
 2023  10   131    48  17.2  -6.0 28.69  8.53  0.69  1.61  82.7  1.38 0.168  1.54   912     9   148   756   475   281     0  0.00     0     0    32     0 42.24 1.421   4.3     0     0  1454   290  0.87  0.77  46.7  24.0  0.86  0.28  0.14  0.34  0.01  0.01  0.01   1.1  0.00  0.00  0.53  0.31
 2023  11   132    49  17.9  -6.0 28.94  8.70  0.71  1.39  77.9  1.46 0.180  1.64   977     9   159   809   507   303     0  0.00     0     0    37     0 47.89 1.553   4.5     0     0  1490   289  0.88  0.76  46.0  21.3  0.74  0.53  0.26  0.43  0.01  0.01  0.01   1.2  0.00  0.00  0.54  0.31
 2023  12   133    50  18.4  -6.0 29.14  8.88  0.73  1.31  76.2  1.55 0.191  1.74  1040     9   170   861   538   324     0  0.00     0     0    41     0 53.71 1.699   4.7     0     0  1521   288  0.89  0.76  45.5  20.3  0.69  0.62  0.31  0.47  0.00  0.00  0.00   1.3  0.00  0.00  0.54  0.31
 2023  13   134    51  16.6  -6.0 29.32  9.04  0.75  1.31  77.1  1.64 0.203  1.85  1106     9   181   916   573   344     0  0.00     0     0    42     0 57.09 1.841   4.6     0     0  1548   287  0.91  0.76  44.8  20.1  0.69  0.63  0.31  0.47  0.00  0.00  0.00   1.3  0.00  0.00  0.54  0.31
 2023  14   135    52  17.6  -6.0 29.45  9.21  0.76  1.20  72.2  1.71 0.213  1.92  1162     9   191   962   598   364     0  0.00     0     0    48     0 65.33 2.000   5.0     0     0  1568   286  0.92  0.75  44.2  19.1  0.63  0.74  0.37  0.51  0.00  0.00  0.00   1.3  0.00  0.00  0.54  0.31
 2023  15   136    53  16.9  -6.0 29.82  9.37  0.78  1.68  70.5  1.78 0.222  2.00  1219     9   201  1009   625   384     0  0.00     0     0    53     0 73.22 2.161   5.3     0     0  1624   285  0.93  0.78  43.8  28.1  0.88  0.24  0.12  0.32  0.00  0.00  0.00   1.6  0.00  0.00  0.54  0.31
 2023  16   137    54  17.0  -6.0 29.88  9.54  0.78  1.05  65.5  1.80 0.227  2.03  1260     9   210  1042   636   405     0  0.00     0     0    67     0 90.02 2.331   6.4     0     0  1631   284  0.95  0.75  43.5  18.8  0.55  0.89  0.45  0.57  0.00  0.00  0.00   1.7  0.00  0.00  0.54  0.30
 2023  17   138    55  14.1  -6.0 30.00  9.67  0.79  1.90  35.7  1.84 0.232  2.07  1286     9   215  1063   650   414     0  0.00     0     0    68     0 96.65 2.480   6.4     0     0  1693   283  0.96  0.79  44.0  67.3  1.85  0.00  0.00  0.00  0.00  0.00  0.00   2.0  0.00  0.00  0.51  0.30
 2023  18   139    56  13.8  -6.0 30.00  9.81  0.79  1.05  63.6  1.87 0.236  2.10  1328     9   224  1095   662   433     0  0.00     0     0    78     0 112.3 2.628   7.1     0     0  1699   282  0.97  0.75  43.5  20.4  0.55  0.90  0.45  0.58  0.00  0.00  0.00   1.6  0.00  0.00  0.47  0.30
 2023  19   140    57  14.2  -6.0 30.00  9.95  0.80  0.97  59.1  1.92 0.244  2.16  1371     9   233  1130   682   448     0  0.00     0     0    81     0 121.6 2.788   7.2     0     0  1700   281  0.98  0.74  43.3  20.0  0.51  0.98  0.49  0.61  0.00  0.00  0.00   2.0  0.00  0.00  0.44  0.30
 2023  20   141    58  13.8  -6.0 30.00 10.08  0.81  0.82  56.4  1.97 0.251  2.22  1412     9   242  1162   701   461     0  0.00     0     0    85     0 131.3 2.948   7.3     0     0  1700   281  0.99  0.74  97.4  39.9  0.43  1.00  0.57  0.67  0.00  0.00  0.00   2.0  0.00  0.00  0.40  0.30
 2023  21   142    59  14.1  -6.0 30.00 10.22  0.83  1.90 132.6  2.13 0.273  2.40  1526     9   258  1260   762   498     0  0.00     0     0    88     0 138.5 3.118   6.9     0     0  1761   279  1.00  0.79  80.5  32.3  2.85  0.00  0.00  0.00  0.00  0.00  0.00   1.7  0.00  0.00  0.37  0.30
 2023  22   143    60  14.1  -6.0 30.00 10.35  0.86  1.90 139.7  2.29 0.296  2.59  1647     9   275  1363   827   536     0  0.00     0     0    90     0 145.7 3.300   6.6     0     0  1822   277  1.01  0.79  71.0  26.9  2.88  0.00  0.00  0.00  0.00  0.00  0.00   1.6  0.00  0.00  0.34  0.30
 2023  23   144    61  12.6  -6.0 30.00 10.47  0.87  1.90 121.4  2.44 0.317  2.76  1752     9   290  1454   884   569     0  0.00     0     0    92     0 152.2 3.472   6.3     0     0  1877   276  1.02  0.80  67.9  30.9  3.32  0.00  0.00  0.00  0.00  0.00  0.00   1.9  0.00  0.00  0.26  0.30
 2023  24   145    62  13.1  -6.0 30.00 10.60  0.89  1.90 147.1  2.62 0.342  2.96  1880     9   308  1564   955   610     0  0.00     0     0    94     0 158.6 3.662   6.0     0     0  1934   275  1.04  0.80  65.5  24.3  2.60  0.00  0.00  0.00  0.00  0.00  0.00   1.5  0.00  0.00  0.19  0.30
 2023  25   146    63  14.5  -6.0 30.00 10.74  0.91  1.90 151.0  2.83 0.371  3.20  2019     9   326  1685  1036   648     0  0.00     0     0    90     0 158.6 3.885   5.3     0     0  1997   273  1.05  0.80  62.9  21.9  2.19  0.00  0.00  0.00  0.00  0.00  0.00   1.5  0.00  0.00  0.18  0.30
 2023  26   147    64  15.7  -6.0 30.00 10.89  0.92  1.90 141.9  3.03 0.398  3.43  2149     9   343  1798  1113   685     0  0.00     0     0    86     0 158.6 4.140   4.8     0     0  1997   272  1.06  0.80  60.7  21.9  2.07  0.00  0.00  0.00  0.00  0.00  0.00   1.4  0.00  0.00  0.18  0.29
 2023  27   148    65  12.1  -6.0 30.00 11.01  0.93  1.90 115.1  3.19 0.421  3.62  2255     9   356  1890  1177   713     0  0.00     0     0    81     0 158.6 4.348   4.3     0     0  1997   271  1.07  0.80  59.1  28.0  2.34  0.00  0.00  0.00  0.00  0.00  0.00   1.7  0.00  0.00  0.08  0.29
 2023  28   149    66  15.6  -6.0 30.00 11.16  0.94  1.90 129.6  3.35 0.444  3.80  2369     9   372  1989  1242   748     0  0.00     0     0    82     0 162.9 4.626   4.1     0     0  1997   270  1.08  0.80  57.3  22.3  1.68  0.00  0.00  0.00  0.00  0.00  0.00   1.4  0.00  0.00  0.00  0.00
 2023  29   150    67  14.4  -6.0 30.00 11.30  0.95  1.90 158.6  3.55 0.472  4.02  2511     9   390  2113  1315   798     0  0.00     0     0    85     0 167.1 4.895   4.0     0     0  1997   270  1.09  0.80  54.9  17.8  1.21  0.00  0.00  0.07  0.00  0.00  0.00   1.4  0.00  0.00  0.00  0.00
 2023  30   151    68  14.6  -6.0 30.00 11.44  0.96  1.90 142.9  3.72 0.497  4.21  2638     9   406  2223  1380   844     0  0.00     0     0    87     0 171.4 5.178   3.9     0     0  1997   269  1.10  0.81  52.8  18.9  1.13  0.00  0.00  0.13  0.00  0.00  0.00   1.6  0.00  0.00  0.00  0.00
 2023  31   152    69  14.5  -6.0 30.00 11.58  0.96  1.80 139.5  3.88 0.522  4.40  2762     9   423  2331  1442   889     0  0.00     0     0    90     0 175.7 5.473   3.8     0     0  1997   269  1.12  0.80  51.0  17.7  0.95  0.11  0.05  0.27  0.00  0.00  0.00   1.7  0.00  0.00  0.00  0.00
 2023  32   153    70  13.4  -6.0 30.16 11.71  0.97  1.90 110.8  4.00 0.542  4.55  2860     9   435  2417  1490   927     0  0.00     0     0    91     0 179.7 5.755   3.8     0     0  1997   269  1.13  0.81  49.7  23.8  1.13  0.00  0.00  0.13  0.00  0.00  0.00   2.0  0.00  0.00  0.00  0.00
 2023  33   154    71  15.9  -6.0 30.92 11.86  0.97  1.33 106.5  4.12 0.560  4.68  2953     9   448  2496  1534   962     0  0.00     0     0    93     0 184.4 6.100   3.7     0     0  1997   269  1.14  0.78  48.6  15.9  0.70  0.61  0.30  0.46  0.00  0.00  0.00   2.0  0.00  0.00  0.00  0.00
 2023  34   155    72  16.9  -6.0 31.72 12.03  0.97  1.16  92.9  4.21 0.575  4.79  3032     9   461  2563  1570   992     0  0.00     0     0    94     0 189.4 6.478   3.7     0     0  1997   268  1.15  0.78  94.0  29.7  0.61  0.78  0.39  0.53  0.00  0.00  0.00   2.0  0.00  0.00  0.00  0.00
 2023  35   156    73  16.9  -6.0 32.52 12.19  0.98  1.90 158.2  4.38 0.603  4.98  3173     9   477  2687  1638  1049     0  0.00     0     0   101     0 194.4 6.867   3.8     0     0  1997   267  1.17  0.82  85.6  25.9  3.45  0.00  0.00  0.00  0.00  0.00  0.00   2.0  0.00  0.00  0.00  0.00
 2023  36   157    74  18.1  -6.0 33.39 12.37  0.98  1.90 158.8  4.53 0.631  5.16  3315     9   494  2812  1706  1106     0  0.00     0     0   108     0 199.9 7.300   3.8     0     0  1997   266  1.18  0.82  80.5  23.7  4.13  0.00  0.00  0.00  0.00  0.00  0.00   2.0  0.00  0.00  0.00  0.00
 2023  37   158    75  16.7  -6.0 34.18 12.53  0.98  1.90 152.8  4.68 0.658  5.34  3451     9   509  2933  1770  1164     0  0.00     0     0   115     0 204.9 7.712   3.9     0     0  1997   265  1.19  0.83  78.2  24.8  4.46  0.00  0.00  0.00  0.00  0.00  0.00   2.0  0.00  0.00  0.00  0.00
 2023  38   159    76  16.2  -6.0 34.96 12.68  0.98  1.90 166.2  4.84 0.687  5.53  3601     9   526  3066  1838  1228     0  0.00     0     0   123     0 209.8 8.125   4.0     0     0  1997   264  1.21  0.83  75.6  22.4  3.91  0.00  0.00  0.00  0.00  0.00  0.00   2.0  0.00  0.00  0.00  0.00
 2023  39   160    77  18.1  -6.0 35.82 12.86  0.99  1.90 171.3  5.00 0.717  5.72  3755     9   543  3203  1908  1295     0  0.00     0     0   132     0 215.2 8.603   4.1     0     0  1997   262  1.22  0.83  72.7  19.9  3.13  0.00  0.00  0.00  0.00  0.00  0.00   2.0  0.00  0.00  0.00  0.00
 2023  40   161    78  15.1  -6.0 36.54 13.01  0.99  1.90 173.6  5.17 0.749  5.92  3912     9   560  3343  1978  1365     0  0.00     0     0   141     0 219.8 9.013   4.2     0     0  1997   261  1.22  0.83  69.1  19.7  2.55  0.00  0.00  0.00  0.00  0.00  0.00   2.0  0.00  0.00  0.00  0.00
 2023  41   162    79  17.1  -6.0 37.36 13.17  0.99  1.90 153.2  5.30 0.776  6.08  4049     9   574  3466  2038  1428     0  0.00     0     0   148     0 225.0 9.493   4.3     0     0  1997   260  1.22  0.84  65.8  20.3  2.23  0.00  0.00  0.00  0.00  0.00  0.00   2.0  0.00  0.00  0.00  0.00
 2023  42   163    80  14.0  -6.0 38.02 13.31  0.99  1.90  55.5  5.36 0.787  6.14  4097     9   579  3509  2055  1454     0  0.00     0     0   143     0 229.2 9.895   4.1     0     0  1997   261  1.22  0.84  64.7  59.9  5.49  0.00  0.00  0.00  0.00  0.00  0.00   2.0  0.00  0.00  0.00  0.00
 2023  43   164    81  15.7  -6.0 38.77 13.46  0.99  1.90 156.3  5.49 0.815  6.30  4238     9   594  3636  2115  1521     0  0.00     0     0   152     0 234.0 10.35   4.2     0     0  1997   259  1.22  0.84  61.4  19.4  1.76  0.00  0.00  0.00  0.00  0.00  0.00   2.0  0.00  0.00  0.00  0.00
 2023  44   165    82  13.9  -6.0 39.43 13.59  0.99  1.90 105.6  5.55 0.835  6.39  4332     9   603  3721  2152  1568     0  0.00     0     0   154     0 238.2 10.76   4.1     0     0  1951   258  1.22  0.85  59.3  29.1  2.28  0.00  0.00  0.00  0.00  0.00  0.00   2.0  0.00  0.00  0.00  0.00
 2023  45   166    83  13.7  -6.0 40.09 13.73  0.99  1.90 157.6  5.66 0.864  6.52  4476     9   617  3850  2211  1639     0  0.00     0     0   162     0 242.4 11.18   4.2     0     0  1908   256  1.22  0.85  56.2  18.3  1.34  0.00  0.00  0.00  0.00  0.00  0.00   2.0  0.00  0.00  0.00  0.00
 2023  46   167    84  14.2  -6.0 40.80 13.73  0.99  2.54 217.0  5.59 0.891  6.48  4679     9   636  4035  2263  1761     0  0.00     0     0   229    11 242.4 11.61   5.7     0     0  1864   247  1.22  0.85  56.8  17.9  1.09  0.00  0.00  0.16  0.00  0.00  0.00   2.0  0.00  0.00  0.00  0.00
 2023  47   168    85  14.1  -6.0 41.50 13.73  0.99  2.54 239.6  5.53 0.922  6.45  4904     9   657  4239  2266  1951     0  0.00     0     0   301    22 242.4 12.06   7.1     0     0  1821   244  1.22  0.85  53.2  15.2  1.37  0.00  0.00  0.00  0.00  0.00  0.00   2.0  0.00  0.00  0.00  0.00
 2023  48   169    86  12.8  -6.0 42.14 13.73  0.99  2.54 172.7  5.47 0.943  6.41  5067     9   671  4387  2256  2099     0  0.00     0     0   355    32 242.4 12.48   8.2     0     0  1784   242  1.22  0.86  97.4  39.2  1.37  0.00  0.00  0.00  0.00  0.00  0.00   2.0  0.00  0.00  0.00  0.00
 2023  49   170    87  17.4  -6.0 43.01 13.73  0.99  2.54 153.7  5.39 0.960  6.35  5211     9   683  4520  2240  2234     0  0.00     0     0   408    45 242.4 13.07   9.1     0     0  1735   241  1.21  0.86 103.7  43.3  6.96  0.00  0.00  0.00  0.00  0.00  0.00   2.0  0.00  0.00  0.00  0.00
 2023  50   171    88  18.8  -6.0 43.95 13.73  0.99  2.54 134.7  5.30 0.974  6.28  5338     9   693  4636  2224  2352     0  0.00     0     0   458    60 242.4 13.71  10.0     0     0  1684   238  1.21  0.87  90.4  41.8  9.08  0.00  0.00  0.00  0.00  0.00  0.00   2.0  0.00  0.00  0.00  0.00
 2023  51   172    89  18.3  -6.0 44.87 13.73  0.99  2.54 166.0  5.22 0.992  6.21  5495     9   706  4781  2209  2497     0  0.00     0     0   516    74 242.4 14.34  11.0     0     0  1636   236  1.21  0.87  84.2  31.8  7.71  0.00  0.00  0.00  0.00  0.00  0.00   2.0  0.00  0.00  0.00  0.00
 2023  52   173    90  16.3  -6.0 45.68 13.73  0.99  2.54 153.3  5.15 1.010  6.16  5640     9   717  4915  2196  2632     0  0.00     0     0   569    87 242.4 14.92  11.8     0     0  1595   234  1.21  0.87  82.3  35.6  8.97  0.00  0.00  0.00  0.00  0.00  0.00   2.0  0.00  0.00  0.00  0.00
 2023  53   174    91  15.3  -6.0 46.45 13.73  0.99  2.54 252.4  5.08 1.043  6.12  5879     9   735  5136  2183  2855     0  0.00     0     0   647    99 242.4 15.47  12.9     0     0  1558   233  1.21  0.88  78.4  21.0  5.64  0.00  0.00  0.00  0.00  0.00  0.00   2.0  0.00  0.00  0.00  0.00
 2023  54   175    92  16.1  -6.0 47.26 13.73  0.99  2.54 253.5  5.01 1.076  6.09  6120     9   752  5360  2168  3080     0  0.00     0     0   727   112 242.4 16.06  13.9     0     0  1520   231  1.21  0.88  74.4  19.2  5.07  0.00  0.00  0.00  0.00  0.00  0.00   2.0  0.00  0.00  0.00  0.00
 2023  55   176    93  13.1  -6.0 47.92 13.73  0.98  2.54 163.0  4.95 1.097  6.05  6276     9   763  5504  2157  3225     0  0.00     0     0   781   122 242.4 16.56  14.5     0     0  1490   230  1.21  0.89  72.0  30.8  6.71  0.00  0.00  0.00  0.00  0.00  0.00   2.0  0.00  0.00  0.00  0.00
 2023  56   177    94  15.6  -6.0 48.70 13.73  0.98  2.54 160.4  4.89 1.116  6.00  6428     9   773  5647  2142  3370     0  0.00     0     0   837   135 242.4 17.15  15.2     0     0  1455   228  1.21  0.89  69.5  28.7  5.62  0.00  0.00  0.00  0.00  0.00  0.00   2.0  0.00  0.00  0.00  0.00
 2023  57   178    95  17.0  -6.0 49.55 13.73  0.98  2.54 260.4  4.81 1.150  5.96  6677     9   789  5880  2127  3499     0  0.00   106   106   920   149 242.4 17.81  16.1     0     0  1419   226  1.21  0.89  65.4  16.3  2.90  0.00  0.00  0.00  0.00  0.00  0.00   2.0  0.00  0.00  0.00  0.00
 2023  58   179    96  16.0  -6.0 51.73 13.73  0.98  2.54 260.1  4.75 1.185  5.93  6926     9   804  6113  2112  3600     0  0.00   240   212  1003   162 242.4 18.44  16.9     0     0  1386   225  1.21  0.90  61.3  15.4  2.27  0.00  0.00  0.00  0.00  0.00  0.00   2.0  0.00  0.00  0.00  0.00
 2023  59   180    97  16.1  -6.0 55.77 13.73  0.98  2.54 229.9  4.70 1.211  5.91  7146     9   816  6321  2104  3682     0  0.00   365   307  1074   170 242.4 19.09  17.5     0     0  1354   223  1.21  0.90  57.6  16.3  1.99  0.00  0.00  0.00  0.00  0.00  0.00   2.0  0.00  0.00  0.00  0.00
 2023  60   181    98  12.6  -6.0 58.94 13.73  0.98  2.54  78.6  4.66 1.216  5.87  7222     9   820  6393  2099  3693     0  0.00   425   339  1102   177 242.4 19.60  17.7     0     0  1330   222  1.21  0.92  56.5  51.5  5.12  0.00  0.00  0.00  0.00  0.00  0.00   2.0  0.00  0.00  0.00  0.00
 2023  61   182    99  14.6  -6.0 64.01 13.73  0.98  2.54 269.4  4.61 1.251  5.86  7482     9   831  6642  2091  3815     0  0.00   552   453  1185   185 242.4 20.20  18.3     0     0  1303   220  1.21  0.92  52.5  13.4  1.34  0.00  0.00  0.00  0.00  0.00  0.00   2.0  0.00  0.00  0.00  0.00
 2023  62   183   100  14.9  -6.0 69.74 13.73  0.98  2.54 275.5  4.56 1.287  5.85  7750     9   842  6900  2083  3918     0  0.00   707   570  1270   192 242.4 20.82  18.9     0     0  1276   219  1.21  0.93  48.2  11.8  1.00  0.00  0.00  0.23  0.00  0.00  0.00   2.0  0.00  0.00  0.00  0.00
 2023  63   184   101  14.5  -6.0 70.71 13.73  0.98  1.95 211.9  4.52 1.312  5.83  7955     9   851  7095  2076  3985     0  0.00   835   659  1336   200 242.4 21.43  19.4     0     0  1251   218  1.21  0.92  44.9  10.9  0.77  0.47  0.23  0.41  0.00  0.00  0.00   2.0  0.00  0.00  0.00  0.00
 2023  64   185   102  15.5  -6.0 71.51 13.73  0.98  1.53 168.7  4.47 1.330  5.80  8117     9   859  7250  2067  4029    11  0.00   934   740  1380   209 242.4 22.09  19.6 14479 .0001  1224   216  1.21  0.92  42.1   9.8  0.60  0.80  0.40  0.54  0.00  0.00  0.00   2.0  0.00  0.00  0.00  0.00
 2023  65   186   103  16.9  -6.0 72.38 13.73  0.97  1.32 139.7  4.33 1.343  5.67  8251     9   865  7378  2016  4060    38  0.01  1020   825  1427   244 242.4 22.81  20.1 14479 .0003  1197   215  1.21  0.92  39.7   9.4  0.52  0.96  0.48  0.60  0.00  0.00  0.00   2.0  0.00  0.00  0.00  0.00
 2023  66   187   104  16.9  -6.0 73.25 13.73  0.97  1.48 121.5  4.19 1.353  5.55  8369     9   869  7491  1966  4075    79  0.01  1092   918  1455   279 242.4 23.54  20.4 14479 .0005  1170   213  1.21  0.94  90.2  27.6  0.58  0.84  0.42  0.55  0.00  0.00  0.00   2.0  0.00  0.00  0.00  0.00
 2023  67   188   105  18.4  -6.0 74.19 13.73  0.97  2.54 244.6  4.14 1.343  5.48  8611     9   871  7731  1956  4188   142  0.02  1157   981  1642   289 242.4 24.34  22.5 14479 .0010  1142   212  1.21  0.98  86.0  21.9  4.12  0.00  0.00  0.00  0.00  0.00  0.00   2.0  0.00  0.00  0.00  0.00
 2023  68   189   106  19.7  -6.0 75.21 13.73  0.97  2.54 266.5  4.08 1.332  5.42  8874     9   873  7992  1944  4316   228  0.03  1205  1067  1828   300 242.4 25.20  24.5 14479 .0016  1113   210  1.21  0.98  81.3  18.5  5.50  0.00  0.00  0.00  0.00  0.00  0.00   2.0  0.00  0.00  0.00  0.00
 2023  69   190   107  19.4  -6.0 76.21 13.73  0.97  2.54 277.2  4.03 1.322  5.35  9148     9   876  8264  1933  4438   333  0.04  1250  1172  2005   310 242.4 26.05  26.3 14479 .0023  1086   208  1.21  0.98  76.5  16.9  5.48  0.00  0.00  0.00  0.00  0.00  0.00   2.0  0.00  0.00  0.00  0.00
 2023  70   191   108  19.6  -6.0 77.22 13.73  0.97  2.54 273.0  3.97 1.311  5.28  9418     9   878  8532  1921  4540   460  0.05  1289  1299  2156   321 242.4 26.91  27.8 14479 .0032  1059   207  1.21  0.98  71.8  16.0  4.87  0.00  0.00  0.00  0.00  0.00  0.00   2.0  0.00  0.00  0.00  0.00
 2023  71   192   109  22.8  -6.0 78.39 13.73  0.96  2.54 271.4  3.91 1.300  5.21  9687     9   881  8798  1906  4610   631  0.07  1316  1470  2264   334 242.4 27.91  28.9 14479 .0044  1030   205  1.21  0.98  66.7  14.1  3.38  0.00  0.00  0.00  0.00  0.00  0.00   2.0  0.00  0.18  0.00  0.00
 2023  72   193   110  22.0  -6.0 79.53 13.73  0.96  2.54 277.0  3.85 1.289  5.14  9960     9   883  9069  1893  4667   823  0.09  1339  1662  2355   346 242.4 28.88  29.8 14479 .0057  1003   203  1.21  0.98  61.7  13.1  2.41  0.00  0.00  0.00  0.00  0.00  0.00   2.0  0.00  0.13  0.00  0.00
 2023  73   194   111  19.8  -6.0 80.19 13.73  0.96  2.54 283.7  3.80 1.279  5.07 10241     9   885  9347  1882  4726  1020  0.11  1363  1859  2448   357 242.4 29.75  30.7 14479 .0070   980   202  1.21  0.98  56.7  12.2  1.76  0.00  0.00  0.00  0.00  0.00  0.00   2.0  0.00  0.00  0.00  0.00
 2023  74   195   112  19.5  -6.0 80.54 13.73  0.96  2.55 249.1  3.77 1.269  5.03 10487     9   888  9591  1880  4752  1226  0.13  1372  2065  2490   361 242.4 30.61  31.1 14479 .0085   958   200  1.21  0.98  52.3  12.9  1.47  0.00  0.00  0.00  0.00  0.00  0.00   2.0  0.00  0.00  0.00  0.00
 2023  75   196   113  20.5  -6.0 80.91 13.73  0.96  2.55 228.1  3.73 1.260  4.99 10713     9   889  9815  1879  4754  1443  0.15  1373  2282  2501   366 242.4 31.52  31.2 14479 .0100   936   199  1.21  0.98  48.2  12.8  1.20  0.00  0.00  0.08  0.00  0.00  0.00   2.0  0.00  0.03  0.00  0.00
 2023  76   197   114  20.0  -6.0 81.27 13.73  0.96  2.55  97.5  3.70 1.250  4.95 10808     9   890  9910  1877  4666  1656  0.17  1342  2495  2388   370 242.4 32.41  30.3 14479 .0114   916   197  1.21  0.98 101.2  64.7  2.23  0.00  0.00  0.00  0.00  0.00  0.00   2.0  0.00  0.00  0.00  0.00
 2023  77   198   115  19.0  -6.0 81.61 13.73  0.96  2.55 265.2  3.68 1.242  4.92 11071     9   892 10170  1876  4706  1858  0.18  1356  2697  2450   374 242.4 33.26  30.9 14479 .0128   897   196  1.20  0.98 117.5  27.7  4.88  0.00  0.00  0.00  0.00  0.00  0.00   2.0  0.00  0.00  0.00  0.00
 2023  78   199   116  19.0  -6.0 81.95 13.73  0.95  2.55 278.3  3.65 1.233  4.88 11346     9   895 10443  1875  4756  2059  0.20  1375  2898  2525   378 242.4 34.11  31.5 14479 .0142   879   195  1.20  0.98  99.8  22.3  5.79  0.00  0.00  0.00  0.00  0.00  0.00   2.0  0.00  0.00  0.00  0.00
 2023  79   200   117  19.0  -6.0 82.30 13.73  0.95  2.55 275.6  3.62 1.225  4.85 11618     9   897 10713  1873  4804  2261  0.21  1392  3100  2597   382 242.4 34.96  32.2 14479 .0156   861   193  1.20  0.98  85.4  19.4  5.53  0.00  0.00  0.00  0.00  0.00  0.00   2.0  0.00  0.00  0.00  0.00
 2023  80   201   118  20.1  -6.0 82.66 13.73  0.95  2.55 272.8  3.59 1.216  4.81 11888     9   899 10980  1871  4842  2474  0.23  1406  3313  2656   386 242.4 35.86  32.7 14479 .0171   844   192  1.20  0.98  80.3  18.3  6.01  0.00  0.00  0.00  0.00  0.00  0.00   2.0  0.00  0.01  0.00  0.00
 2023  81   202   119  20.2  -6.0 83.02 13.73  0.95  2.55 272.5  3.56 1.208  4.77 12158     9   902 11247  1869  4879  2689  0.24  1419  3528  2713   391 242.4 36.77  33.2 14479 .0186   827   191  1.20  0.98  75.4  16.8  5.51  0.00  0.00  0.00  0.00  0.00  0.00   2.0  0.00  0.02  0.00  0.00
 2023  82   203   120  19.6  -6.0 83.37 13.73  0.95  2.55 283.1  3.54 1.199  4.74 12437     9   904 11525  1868  4928  2897  0.25  1437  3736  2787   395 242.4 37.66  33.8 14479 .0200   811   189  1.20  0.98  70.4  15.4  4.65  0.00  0.00  0.00  0.00  0.00  0.00   2.0  0.00  0.00  0.00  0.00
 2023  83   204   121  17.6  -6.0 83.69 13.73  0.95  2.55 302.1  3.51 1.192  4.71 12736     9   907 11821  1867  5006  3083  0.26  1466  3922  2900   399 242.4 38.45  34.8 14479 .0213   798   188  1.20  0.98  65.3  13.9  3.32  0.00  0.00  0.00  0.00  0.00  0.00   2.0  0.00  0.00  0.00  0.00
 2023  84   205   122  17.1  -6.0 84.00 13.73  0.95  2.55 289.7  3.49 1.186  4.68 13023     9   910 12105  1865  5080  3264  0.27  1492  4104  3007   403 242.4 39.23  35.6 14479 .0225   786   187  1.20  0.98  60.4  13.6  2.57  0.00  0.00  0.00  0.00  0.00  0.00   2.0  0.00  0.00  0.00  0.00
 2023  85   206   123  17.5  -6.0 84.31 13.73  0.95  2.55 291.8  3.47 1.179  4.65 13312     9   912 12391  1863  5152  3450  0.28  1519  4289  3111   407 242.4 40.03  36.5 14479 .0238   773   186  1.20  0.98  55.4  12.2  1.83  0.00  0.00  0.00  0.00  0.00  0.00   2.0  0.00  0.00  0.00  0.00
 2023  86   207   124  17.5  -6.0 84.63 13.73  0.95  2.55 226.4  3.45 1.172  4.62 13535     9   914 12613  1861  5177  3636  0.29  1528  4475  3151   410 242.4 40.83  36.8 14479 .0251   761   185  1.20  0.98  87.6  24.8  1.72  0.00  0.00  0.00  0.00  0.00  0.00   2.0  0.00  0.00  0.00  0.00
 2023  87   208   125  18.8  -6.0 84.96 13.73  0.94  2.55 271.9  3.42 1.165  4.59 13804     9   917 12879  1859  5225  3835  0.30  1545  4674  3223   415 242.4 41.68  37.3 14479 .0265   749   184  1.20  0.98  82.8  19.0  5.51  0.00  0.00  0.00  0.00  0.00  0.00   2.0  0.00  0.00  0.00  0.00
 2023  88   209   126  18.0  -6.0 85.29 13.73  0.94  2.55 281.2  3.40 1.158  4.56 14082     9   919 13155  1857  5286  4025  0.31  1568  4865  3311   419 242.4 42.51  38.0 14479 .0278   738   183  1.20  0.98  77.9  17.5  6.05  0.00  0.00  0.00  0.00  0.00  0.00   2.0  0.00  0.00  0.00  0.00
 2023  89   210   127  19.3  -6.0 85.63 13.73  0.94  2.55 277.3  3.38 1.151  4.53 14357     9   922 13426  1855  5333  4230  0.32  1585  5069  3383   423 242.4 43.40  38.6 14479 .0292   727   182  1.20  0.98  72.9  16.3  5.49  0.00  0.00  0.00  0.00  0.00  0.00   2.0  0.00  0.00  0.00  0.00
 2023  90   211   128  18.7  -6.0 85.97 13.73  0.93  2.55 305.7  3.18 1.145  4.33 14659     9   925 13726  1760  5422  4428  0.32  1634  5267  3544   482 242.4 44.26  40.2 14479 .0306   716   181  1.20  0.98  67.6  13.9  3.98  0.00  0.00  0.00  0.00  0.00  0.00   2.0  0.00  0.00  0.00  0.00
 2023  91   212   129  19.4  -6.0 86.32 13.73  0.92  2.55 294.1  3.00 1.138  4.14 14950     9   927 14014  1668  5497  4633  0.33  1677  5472  3684   540 242.4 45.15  41.7 14479 .0320   705   180  1.20  0.98  62.2  13.1  2.87  0.00  0.00  0.00  0.00  0.00  0.00   2.0  0.00  0.00  0.00  0.00
 2023  92   213   130  20.8  -6.0 86.69 13.73  0.91  2.55 283.5  2.81 1.131  3.94 15230     9   930 14292  1571  5553  4854  0.34  1714  5693  3801   600 242.4 46.12  43.0 14479 .0335   694   179  1.20  0.98  56.9  12.1  2.07  0.00  0.00  0.00  0.00  0.00  0.00   2.0  0.00  0.06  0.00  0.00
 2023  93   214   131  18.6  -6.0 87.03 13.73  0.89  2.55 266.5  2.61 1.124  3.73 15494     9   932 14553  1466  5616  5052  0.35  1755  5891  3929   664 242.4 46.99  44.5 14479 .0349   685   178  1.20  0.98  52.4  12.4  1.65  0.00  0.00  0.00  0.00  0.00  0.00   2.0  0.00  0.00  0.00  0.00
 2023  94   215   132  17.1  -6.0 87.33 13.73  0.87  2.55 287.4  2.42 1.119  3.54 15778     9   935 14835  1371  5705  5233  0.35  1804  6072  4088   722 242.4 47.78  46.0 14479 .0361   677   177  1.20  0.98  48.0  11.1  1.20  0.00  0.00  0.08  0.00  0.00  0.00   2.0  0.00  0.00  0.00  0.00
 2023  95   216   133  15.9  -6.0 87.62 13.73  0.85  2.42 263.8  2.26 1.114  3.37 16039     9   937 15093  1284  5786  5400  0.36  1848  6239  4233   776 242.4 48.52  47.5 14479 .0373   669   176  1.20  0.98  44.1  10.9  0.95  0.10  0.05  0.27  0.00  0.00  0.00   2.0  0.00  0.00  0.00  0.00
 2023  96   217   134  15.9  -6.0 87.91 13.73  0.83  1.80 200.5  2.11 1.108  3.21 16237     9   939 15290  1202  5821  5567  0.36  1875  6406  4312   825 242.4 49.27  48.5 14479 .0384   662   175  1.20  0.98  41.1   9.8  0.71  0.59  0.29  0.46  0.00  0.00  0.00   2.0  0.00  0.00  0.00  0.00
 2023  97   218   135  17.3  -6.0 88.22 13.73  0.80  1.47 159.6  1.91 1.103  3.01 16395     9   940 15446  1095  5819  5750  0.37  1893  6589  4349   889 242.4 50.08  49.4 14479 .0397   654   174  1.20  0.98  38.6   9.2  0.58  0.85  0.42  0.56  0.00  0.00  0.00   2.0  0.00  0.00  0.00  0.00
 2023  98   219   136  19.2  -6.0 88.56 13.73  0.76  1.23 130.3  1.70 1.093  2.80 16523     9   940 15574   982  5760  5954  0.38  1905  6793  4340   972 242.4 50.98  50.2 14479 .0411   646   173  1.20  0.98  36.6   8.7  0.48  1.00  0.52  0.63  0.00  0.00  0.00   2.0  0.00  0.00  0.00  0.00
 2023  99   220   137  20.0  -6.0 88.92 13.73  0.71  1.10 111.9  1.49 1.083  2.57 16633     9   941 15684   861  5683  6166  0.39  1913  7005  4309  1061 242.4 51.92  51.0 14479 .0426   637   173  1.20  0.98  34.7   8.5  0.43  1.00  0.57  0.67  0.00  0.00  0.00   1.7  0.00  0.00  0.00  0.00
 2023 100   221   138  19.5  -6.0 89.27 13.73  0.66  1.13 100.4  1.26 1.073  2.34 16732     9   941 15782   737  5602  6373  0.40  1919  7212  4274  1150 242.4 52.84  51.8 14479 .0440   629   172  1.20  0.98  33.1   9.4  0.44  1.00  0.56  0.66  0.00  0.00  0.00   1.6  0.00  0.00  0.00  0.00
 2023 101   222   139  21.5  -6.0 89.66 13.73  0.59  1.04  87.4  1.05 1.062  2.12 16817     9   941 15868   618  5494  6601  0.42  1916  7440  4202  1239 242.4 53.85  52.3 14479 .0456   621   170  1.20  0.98  31.7   9.2  0.41  1.00  0.59  0.69  0.00  0.00  0.00   1.2  0.00  0.10  0.00  0.00
 2023 102   223   140  20.7  -6.0 90.08 13.73  0.50  1.09  81.6  0.83 1.052  1.88 16897     9   941 15948   488  5402  6805  0.43  1920  7644  4153  1331 242.4 54.83  53.2 14479 .0470   612   169  1.20  0.98  30.4  10.2  0.43  1.00  0.57  0.67  0.00  0.00  0.00   1.1  0.00  0.04  0.00  0.00

*DSSAT Cropping System Model Ver. 4.8.2.000 -release  JUN 25, 2025 11:08:18

*RUN   2        : WW23_G-2                  CSCER048 CIOB2301    2
 MODEL          : CSCER048 - Wheat
 EXPERIMENT     : CIOB2301 WH ROOTS ANATOMY
 DATA PATH      : C:\DSSAT48\Wheat\
 TREATMENT  2   : WW23_G-2                  CSCER048
  
@YEAR DOY   DAS   DAP TMEAN TKILL  GSTD  L#SD PARID PARUD  AWAD  LAID  SAID  CAID  TWAD SDWAD  RWAD  CWAD  LWAD  SWAD  HWAD  HIAD CHWAD  EWAD RSWAD SNWPD SNWLD SNWSD  RS%D  H#AD  HWUD  T#AD  SLAD  RDPD  PTFD  SWXD WAVRD WUPRD  WFTD  WFPD  WFGD  NFTD  NFPD  NFGD NUPRD  TFPD  TFGD VRNFD DYLFD
 2022 327    83     0  17.6  -6.0  0.00  0.00  0.00  0.00   0.0  0.00 0.000  0.00    43    43     0     0     0     0     0  0.00     0     0     0     0     0     0   0.0     0     0   150   -99  0.04  0.98  19.7  99.9  1.00  0.00  0.00  0.00  0.00  0.00  0.00   0.0  0.00  0.00  0.53  0.00
 2022 328    84     1  16.4  -6.0  5.84  0.00  0.00  0.00   0.0  0.00 0.000  0.00    43    43     0     0     0     0     0  0.00     0     0     0     0     0     0   0.0     0     0   150   -99  0.04  0.98   7.2  99.9  1.00  0.00  0.00  0.00  0.00  0.00  0.00   0.0  0.00  0.00  0.53  0.00
 2022 329    85     2  17.4  -6.0  8.40  0.00  0.00  0.00   0.0  0.00 0.000  0.00    43    41     1     0     0     0     0  0.00     0     0     0     0     0     0   0.0     0     0   150   -99  0.07  0.98   4.4  99.9  1.00  0.00  0.00  0.00  0.00  0.00  0.00   0.0  0.00  0.00  0.53  0.00
 2022 330    86     3  18.0  -6.0 10.00  0.00  0.00  0.00   0.0  0.00 0.000  0.00    43    40     3     0     0     0     0  0.00     0     0     0     0     0 .0012   0.0     0     0   150   -99  0.09  0.98   3.7  99.9  1.00  0.00  0.00  0.00  0.00  0.00  0.00   2.0  0.00  0.00  0.53  0.00
 2022 331    87     4  16.3  -6.0 10.22  0.22  0.03  0.00   0.0  0.03 0.003  0.03    43    26     4    13     9     4     0  0.00     0     0     0     0     0 .0033   0.0     0     0   150   350  0.12  0.75   3.8  99.9  1.00  0.00  0.00  0.00  0.00  0.00  0.00   0.1  0.00  0.00  0.53  0.28
 2022 332    88     5  16.1  -6.0 10.43  0.43  0.03  0.48   1.0  0.04 0.004  0.04    43    22     5    16    10     6     0  0.00     0     0     1     0 0.128 .0064   5.0     0     0   150   347  0.14  0.68   4.1  53.5  0.26  1.00  0.74  0.80  0.00  0.00  0.00   0.2  0.00  0.00  0.53  0.28
 2022 333    89     6  18.1  -6.0 10.67  0.67  0.04  0.44   1.0  0.04 0.004  0.05    44    18     6    20    12     8     0  0.00     0     0     2     0 0.281 .0111   8.3     0     0   150   347  0.17  0.68   5.5  59.3  0.28  1.00  0.72  0.79  0.16  0.16  0.16   0.3  0.00  0.00  0.53  0.29
 2022 334    90     7  18.5  -6.0 10.92  0.92  0.04  0.47   1.3  0.05 0.005  0.06    45    12     8    25    15    10     0  0.00     0     0     3     0 0.464 .0170  10.6     0     0   150   346  0.19  0.69   7.0  64.2  0.35  1.00  0.65  0.73  0.29  0.29  0.29   0.3  0.00  0.00  0.53  0.29
 2022 335    91     8  19.2  -6.0 11.18  1.18  0.05  0.43   1.5  0.06 0.006  0.06    46     9     9    28    17    11     0  0.00     0     0     3     0 0.685 .0245   9.5     0     0   150   346  0.22  0.70   8.6  63.4  0.37  1.00  0.63  0.72  0.38  0.38  0.38   0.6  0.00  0.00  0.53  0.29
 2022 336    92     9  23.0  -6.0 11.48  1.48  0.05  0.45   1.7  0.06 0.006  0.07    47     9    10    29    18    11     0  0.00     0     0     3     0 0.932 .0349   9.0     0     0   150   345  0.26  0.70  10.6  68.0  0.39  1.00  0.61  0.70  0.38  0.38  0.38   1.1  0.00  0.20  0.53  0.29
 2022 337    93    10  23.0  -6.0 11.79  1.79  0.05  0.52   1.9  0.06 0.006  0.07    49     9    10    30    19    12     0  0.00     0     0     3     0 1.194 .0458   8.7     0     0   150   344  0.29  0.70  12.5  84.1  0.41  1.00  0.59  0.68  0.33  0.33  0.33   1.4  0.00  0.20  0.53  0.29
 2022 338    94    11  22.0  -6.0 12.04  2.04  0.06  0.56   2.0  0.07 0.007  0.07    50     9    10    31    19    12     0  0.00     0     0     3     0 1.467 .0567   8.5     0     0   150   343  0.32  0.70  14.4  98.5  0.42  1.00  0.58  0.68  0.29  0.29  0.29   1.6  0.00  0.13  0.53  0.29
 2022 339    95    12  22.2  -6.0 12.19  2.19  0.06  1.39   2.1  0.07 0.007  0.08    52     9    11    33    21    12     0  0.00     0     0     2     0 1.467 .0682   7.3     0     0   150   342  0.35  0.74  16.5  99.9  1.02  0.00  0.00  0.21  0.26  0.26  0.26   1.6  0.00  0.15  0.53  0.29
 2022 340    96    13  19.7  -6.0 12.32  2.32  0.06  1.45   1.7  0.07 0.007  0.08    54     9    11    34    22    13     0  0.00     0     0     2     0 1.467 .0786   6.4     0     0   150   341  0.37  0.74  19.7  99.9  1.43  0.00  0.00  0.00  0.23  0.23  0.23   1.7  0.00  0.00  0.53  0.29
 2022 341    97    14  20.0  -6.0 12.45  2.45  0.07  1.32   2.6  0.08 0.008  0.09    56     9    11    36    23    13     0  0.00     0     0     2     0 1.467 .0894   5.5     0     0   181   340  0.39  0.74  20.2  99.9  0.89  0.23  0.11  0.32  0.20  0.20  0.20   1.5  0.00  0.00  0.53  0.29
 2022 342    98    15  20.8  -6.0 12.59  2.59  0.07  0.61   2.7  0.08 0.008  0.09    58     9    12    38    24    14     0  0.00     0     0     2     0 1.804 0.101   5.7     0     0   181   339  0.41  0.70  20.8  99.9  0.39  1.00  0.61  0.70  0.18  0.18  0.18   1.5  0.00  0.05  0.53  0.29
 2022 343    99    16  18.0  -6.0 12.71  2.71  0.07  0.59   3.0  0.08 0.009  0.09    60     9    12    39    25    14     0  0.00     0     0     2     0 2.154 0.112   5.9     0     0   181   338  0.43  0.70  21.9  99.9  0.37  1.00  0.63  0.71  0.16  0.16  0.16   1.7  0.00  0.00  0.53  0.29
 2022 344   100    17  17.0  -6.0 12.83  2.83  0.07  0.59   3.4  0.09 0.009  0.10    63     9    13    41    26    15     0  0.00     0     0     2     0 2.520 0.122   6.0     0     0   181   337  0.44  0.70  22.9  99.9  0.37  1.00  0.63  0.72  0.14  0.14  0.14   1.7  0.00  0.00  0.53  0.29
 2022 345   101    18  16.2  -6.0 12.93  2.93  0.08  0.65   3.7  0.09 0.009  0.10    66     9    13    44    28    16     0  0.00     0     0     3     0 2.903 0.132   6.1     0     0   181   336  0.46  0.71  23.8  99.9  0.40  1.00  0.60  0.70  0.12  0.12  0.12   1.7  0.00  0.00  0.53  0.29
 2022 346   102    19  16.1  -6.0 13.04  3.04  0.08  0.68   4.1  0.10 0.010  0.11    69     9    14    46    29    17     0  0.00     0     0     3     0 3.306 0.143   6.1     0     0   181   335  0.47  0.71  24.7  99.9  0.41  1.00  0.59  0.69  0.10  0.10  0.10   1.6  0.00  0.00  0.53  0.29
 2022 347   103    20  15.1  -6.0 13.14  3.14  0.09  0.78   4.7  0.10 0.011  0.11    73     9    15    49    31    18     0  0.00     0     0     3     0 3.731 0.154   6.2     0     0   181   334  0.49  0.71  72.2  99.9  0.46  1.00  0.54  0.65  0.09  0.09  0.09   1.4  0.00  0.00  0.53  0.29
 2022 348   104    21  15.2  -6.0 13.24  3.24  0.10  1.73  11.8  0.12 0.013  0.14    83     9    17    58    37    21     0  0.00     0     0     3     0 3.731 0.165   5.0     0     0   209   332  0.50  0.76  55.3  99.9  1.69  0.00  0.00  0.00  0.07  0.07  0.07   1.5  0.00  0.00  0.53  0.29
 2022 349   105    22  14.6  -6.0 13.34  3.34  0.12  1.77  13.8  0.15 0.015  0.16    96     9    19    69    44    25     0  0.00     0     0     3     0 3.731 0.178   4.0     0     0   236   330  0.52  0.76  39.9  99.9  1.72  0.00  0.00  0.00  0.06  0.06  0.06   1.3  0.00  0.00  0.52  0.29
 2022 350   106    23  12.5  -6.0 13.43  3.43  0.13  1.79   9.1  0.16 0.017  0.18   104     9    20    76    49    27     0  0.00     0     0     3     0 3.731 0.189   3.5     0     0   260   328  0.53  0.77  33.7  99.9  1.99  0.00  0.00  0.00  0.04  0.04  0.04   1.3  0.00  0.00  0.43  0.29
 2022 351   107    24  14.9  -6.0 13.53  3.53  0.15  1.81  17.2  0.19 0.020  0.21   120     9    22    89    58    31     0  0.00     0     0     3     0 3.731 0.204   2.9     0     0   289   327  0.54  0.77  31.7  92.1  1.06  0.00  0.00  0.19  0.03  0.03  0.03   0.6  0.00  0.00  0.43  0.29
 2022 352   108    25  15.5  -6.0 21.11  3.63  0.17  1.58  17.6  0.22 0.023  0.24   136     9    25   102    67    36     0  0.00     0     0     3     0 3.731 0.221   2.5     0     0   316   326  0.56  0.76  32.2  80.4  0.93  0.14  0.07  0.28  0.09  0.09  0.09   0.7  0.00  0.00  0.43  0.29
 2022 353   109    26  14.8  -6.0 21.25  3.73  0.19  1.42  18.1  0.25 0.026  0.27   152     9    27   116    76    40     0  0.00     0     0     3     0 3.731 0.240   2.3     0     0   337   325  0.57  0.76  32.7  71.6  0.86  0.29  0.14  0.34  0.12  0.12  0.12   0.8  0.00  0.00  0.42  0.29
 2022 354   110    27  16.6  -6.0 21.40  3.84  0.21  1.40  18.4  0.27 0.029  0.30   168     9    30   130    85    45     0  0.00     0     0     3     0 3.731 0.262   2.0     0     0   361   324  0.59  0.76  33.3  69.0  0.86  0.29  0.14  0.34  0.13  0.13  0.13   0.9  0.00  0.00  0.42  0.29
 2022 355   111    28  15.2  -6.0 21.50  3.94  0.23  1.23  19.9  0.31 0.033  0.34   186     9    33   145    94    50     0  0.00     0     0     3     0 3.731 0.285   1.9     0     0   376   324  0.60  0.75  33.7  58.0  0.75  0.51  0.25  0.43  0.12  0.12  0.12   0.9  0.00  0.00  0.42  0.29
 2022 356   112    29  15.3  -6.0 21.59  4.04  0.25  1.18  21.3  0.34 0.037  0.38   205     9    36   161   104    56     0  0.00     0     0     3     0 3.731 0.310   1.7     0     0   389   324  0.61  0.75  34.1  52.6  0.71  0.58  0.29  0.45  0.11  0.11  0.11   0.9  0.00  0.00  0.42  0.29
 2022 357   113    30  15.9  -6.0 21.67  4.15  0.27  1.16  22.6  0.37 0.040  0.41   224     9    40   176   114    62     0  0.00     0     0     4     0 5.063 0.339   2.4     0     0   401   321  0.63  0.74  34.6  48.5  0.69  0.62  0.31  0.47  0.10  0.10  0.10   1.0  0.00  0.00  0.42  0.29
 2022 358   114    31  16.2  -6.0 21.75  4.26  0.29  1.14  23.9  0.40 0.043  0.44   244     9    43   193   124    68     0  0.00     0     0     6     0 6.424 0.371   2.9     0     0   412   319  0.64  0.74  35.0  45.4  0.67  0.66  0.33  0.48  0.09  0.09  0.09   1.1  0.00  0.00  0.42  0.29
 2022 359   115    32  17.8  -6.0 21.80  4.37  0.31  1.08  24.3  0.43 0.047  0.47   265     9    47   209   134    75     0  0.00     0     0     7     0 7.916 0.410   3.3     0     0   421   318  0.66  0.74  35.4  41.2  0.62  0.76  0.38  0.52  0.07  0.07  0.07   1.2  0.00  0.00  0.49  0.29
 2022 360   116    33  17.0  -6.0 21.85  4.49  0.33  1.06  25.7  0.46 0.051  0.51   286     9    51   227   145    82     0  0.00     0     0     8     0 9.347 0.450   3.6     0     0   428   317  0.67  0.74  35.8  39.3  0.60  0.79  0.40  0.54  0.06  0.06  0.06   1.2  0.00  0.00  0.49  0.29
 2022 361   117    34  17.5  -6.0 21.89  4.60  0.34  1.04  26.3  0.48 0.054  0.54   306     9    55   242   153    89     0  0.00     0     0    11     0 12.91 0.495   4.7     0     0   433   316  0.68  0.74  36.3  37.4  0.58  0.84  0.42  0.55  0.05  0.05  0.05   1.2  0.00  0.00  0.53  0.29
 2022 362   118    35  16.6  -6.0 22.09  4.72  0.37  1.70  28.2  0.53 0.059  0.59   332     9    59   264   168    96     0  0.00     0     0    11     0 12.91 0.540   4.1     0     0   463   315  0.70  0.77  36.6  60.3  0.95  0.11  0.05  0.27  0.04  0.04  0.04   1.4  0.00  0.00  0.53  0.29
 2022 363   119    36  17.2  -6.0 22.31  4.83  0.38  1.81  14.0  0.55 0.061  0.61   344     9    61   275   176    99     0  0.00     0     0    10     0 12.91 0.591   3.6     0     0   496   315  0.71  0.78  37.5  99.9  2.07  0.00  0.00  0.00  0.03  0.03  0.03   2.0  0.00  0.00  0.53  0.29
 2022 364   120    37  18.6  -6.0 22.33  4.95  0.40  0.99  27.4  0.58 0.065  0.65   366     9    65   293   186   107     0  0.00     0     0    12     0 15.43 0.648   4.1     0     0   499   314  0.73  0.73  38.0  35.7  0.54  0.92  0.46  0.58  0.03  0.03  0.03   1.2  0.00  0.00  0.53  0.29
 2022 365   121    38  17.8  -6.0 22.33  5.07  0.41  0.93  28.2  0.62 0.069  0.68   389     9    70   311   196   114     0  0.00     0     0    14     0 18.09 0.706   4.6     0     0   500   313  0.74  0.73  38.5  33.3  0.51  0.99  0.49  0.61  0.02  0.02  0.02   1.5  0.00  0.00  0.53  0.29
 2023   1   122    39  16.6  -6.0 22.37  5.18  0.43  1.08  30.0  0.65 0.073  0.72   413     9    74   330   208   122     0  0.00     0     0    16     0 20.89 0.764   4.9     0     0   506   312  0.75  0.74  38.8  38.5  0.59  0.83  0.41  0.55  0.01  0.01  0.01   1.5  0.00  0.00  0.53  0.29
 2023   2   123    40  15.1  -6.0 22.46  5.28  0.45  1.33  31.4  0.70 0.079  0.78   441     9    79   354   224   130     0  0.00     0     0    15     0 20.89 0.820   4.3     0     0   519   311  0.77  0.75  39.1  46.9  0.72  0.56  0.28  0.45  0.01  0.01  0.01   1.5  0.00  0.00  0.53  0.29
 2023   3   124    41  13.8  -6.0 22.46  5.38  0.47  0.95  32.4  0.73 0.083  0.81   467     9    84   374   236   139     0  0.00     0     0    18     0 24.09 0.874   4.7     0     0   519   310  0.78  0.73  80.0  67.4  0.51  0.98  0.49  0.61  0.01  0.01  0.01   1.2  0.00  0.00  0.49  0.29
 2023   4   125    42  16.3  -6.0 22.79  5.48  0.51  1.87  68.3  0.84 0.095  0.93   529     9    93   428   271   157     0  0.00     0     0    18     0 24.09 0.942   4.1     0     0   568   309  0.79  0.78  63.2  44.6  1.74  0.00  0.00  0.00  0.00  0.00  0.00   1.4  0.00  0.00  0.49  0.29
 2023   5   126    43  17.6  -6.0 23.14  5.60  0.56  1.87  77.6  0.96 0.109  1.06   600     9   103   489   311   178     0  0.00     0     0    18     0 24.09 1.024   3.6     0     0   621   307  0.80  0.78  54.3  33.5  1.68  0.00  0.00  0.00  0.00  0.00  0.00   1.3  0.00  0.00  0.51  0.29
 2023   6   127    44  18.3  -6.0 23.51  5.72  0.61  1.87  83.2  1.08 0.125  1.21   676     9   113   554   353   201     0  0.00     0     0    18     0 24.09 1.118   3.3     0     0   676   306  0.82  0.79  50.7  29.4  1.35  0.00  0.00  0.00  0.00  0.00  0.00   1.1  0.00  0.00  0.51  0.29
 2023   7   128    45  17.7  -6.0 23.86  5.84  0.65  1.87  87.1  1.21 0.140  1.36   756     9   124   623   397   226     0  0.00     0     0    18     0 24.09 1.218   3.0     0     0   729   306  0.83  0.79  49.3  27.8  1.24  0.00  0.00  0.05  0.00  0.00  0.00   1.0  0.00  0.00  0.51  0.29
 2023   8   129    46  17.3  -6.0 24.20  5.96  0.69  1.87  93.0  1.36 0.157  1.51   841     9   136   696   443   254     0  0.00     0     0    19     0 24.09 1.325   2.7     0     0   781   306  0.85  0.79  48.4  25.6  1.11  0.00  0.00  0.14  0.00  0.00  0.00   0.9  0.00  0.00  0.51  0.29
 2023   9   130    47  16.6  -6.0 24.48  6.07  0.73  1.68  93.0  1.50 0.174  1.67   925     9   148   769   487   281     0  0.00     0     0    20     0 24.09 1.439   2.6     0     0   822   307  0.86  0.78  47.5  22.8  0.91  0.18  0.09  0.30  0.01  0.01  0.01   0.9  0.00  0.00  0.51  0.29
 2023  10   131    48  17.2  -6.0 24.69  6.18  0.75  1.50  84.2  1.61 0.189  1.80  1001     9   160   833   527   305     0  0.00     0     0    21     0 24.83 1.566   2.5     0     0   854   306  0.87  0.77  46.7  21.7  0.81  0.37  0.19  0.37  0.02  0.02  0.02   1.0  0.00  0.00  0.51  0.29
 2023  11   132    49  17.9  -6.0 24.83  6.30  0.78  1.29  79.1  1.73 0.203  1.93  1072     9   171   893   564   329     0  0.00     0     0    21     0 24.83 1.709   2.3     0     0   875   306  0.89  0.76  46.0  19.3  0.70  0.61  0.30  0.46  0.01  0.01  0.01   1.1  0.00  0.00  0.53  0.29
 2023  12   133    50  18.4  -6.0 24.95  6.43  0.80  1.21  77.2  1.84 0.216  2.05  1142     9   182   951   600   351     0  0.00     0     0    21     0 24.83 1.866   2.2     0     0   892   306  0.90  0.76  45.4  18.3  0.65  0.70  0.35  0.50  0.01  0.01  0.01   1.1  0.00  0.00  0.53  0.29
 2023  13   134    51  16.6  -6.0 25.04  6.54  0.81  1.20  77.1  1.95 0.230  2.18  1211     9   193  1009   636   374     0  0.00     0     0    21     0 24.83 2.018   2.1     0     0   906   306  0.92  0.76  44.6  18.1  0.64  0.72  0.36  0.51  0.00  0.00  0.00   1.1  0.00  0.00  0.53  0.29
 2023  14   135    52  17.6  -6.0 25.10  6.65  0.82  1.08  70.6  2.01 0.238  2.25  1265     9   204  1053   665   388     0  0.00     0     0    30     0 34.00 2.189   2.8     0     0   914   302  0.93  0.75  44.1  17.4  0.58  0.84  0.42  0.56  0.00  0.00  0.00   1.3  0.00  0.00  0.53  0.29
 2023  15   136    53  16.9  -6.0 25.30  6.77  0.84  1.51  68.5  2.11 0.250  2.36  1327     9   213  1106   697   409     0  0.00     0     0    29     0 34.00 2.360   2.6     0     0   945   303  0.95  0.77  43.7  25.8  0.81  0.39  0.19  0.38  0.00  0.00  0.00   1.9  0.00  0.00  0.53  0.28
 2023  16   137    54  17.0  -6.0 25.31  6.88  0.85  0.95  63.4  2.16 0.257  2.42  1374     9   223  1143   722   421     0  0.00     0     0    38     0 43.97 2.541   3.3     0     0   946   299  0.96  0.74  43.5  17.2  0.50  0.99  0.50  0.61  0.00  0.00  0.00   1.4  0.00  0.00  0.53  0.28
 2023  17   138    55  14.1  -6.0 25.59  6.97  0.85  1.87  38.0  2.22 0.265  2.49  1409     9   227  1173   739   434     0  0.00     0     0    35     0 43.97 2.698   3.0     0     0   988   300  0.97  0.79  43.9  61.5  1.67  0.00  0.00  0.00  0.00  0.00  0.00   2.0  0.00  0.00  0.50  0.28
 2023  18   139    56  13.8  -6.0 25.59  7.07  0.86  0.93  61.1  2.26 0.271  2.54  1453     9   236  1208   763   446     0  0.00     0     0    44     0 54.48 2.854   3.6     0     0   988   297  0.98  0.74  43.5  18.6  0.50  1.00  0.50  0.62  0.00  0.00  0.00   1.4  0.00  0.00  0.46  0.28
 2023  19   140    57  14.2  -6.0 25.59  7.16  0.86  0.86  56.6  2.28 0.274  2.55  1488     9   245  1234   770   464     0  0.00     0     0    57     0 70.38 3.023   4.6     0     0   988   296  0.99  0.74  43.3  18.2  0.46  1.00  0.54  0.65  0.00  0.00  0.00   2.0  0.00  0.00  0.43  0.28
 2023  20   141    58  13.8  -6.0 25.59  7.25  0.86  0.73  54.0  2.29 0.277  2.57  1520     9   253  1258   777   481     0  0.00     0     0    69     0 86.21 3.191   5.5     0     0   988   295  1.00  0.73  98.4  37.1  0.39  1.00  0.61  0.70  0.00  0.00  0.00   2.0  0.00  0.00  0.39  0.28
 2023  21   142    59  14.1  -6.0 25.87  7.35  0.88  1.87 138.9  2.50 0.303  2.80  1647     9   270  1369   851   518     0  0.00     0     0    67     0 86.21 3.370   4.9     0     0  1030   294  1.02  0.80  81.5  30.4  2.78  0.00  0.00  0.00  0.00  0.00  0.00   2.0  0.00  0.00  0.36  0.28
 2023  22   143    60  14.1  -6.0 26.15  7.44  0.90  1.87 145.9  2.71 0.330  3.04  1781     9   288  1485   928   557     0  0.00     0     0    65     0 86.21 3.559   4.4     0     0  1072   293  1.03  0.80  71.8  25.4  2.81  0.00  0.00  0.00  0.00  0.00  0.00   1.5  0.00  0.00  0.33  0.28
 2023  23   144    61  12.6  -6.0 26.15  7.52  0.92  1.87 126.2  2.90 0.354  3.26  1897     9   303  1586   995   591     0  0.00     0     0    63     0 86.21 3.740   4.0     0     0  1072   292  1.04  0.80  69.0  29.4  3.38  0.00  0.00  0.00  0.00  0.00  0.00   1.7  0.00  0.00  0.25  0.28
 2023  24   145    62  13.1  -6.0 26.15  7.61  0.93  1.87 152.3  3.12 0.383  3.51  2037     9   321  1707  1068   640     0  0.00     0     0    62     0 86.21 3.938   3.6     0     0  1072   293  1.05  0.80  66.6  23.2  2.59  0.00  0.00  0.00  0.00  0.00  0.00   1.5  0.00  0.00  0.19  0.28
 2023  25   146    63  14.5  -6.0 26.15  7.71  0.94  1.87 155.5  3.35 0.412  3.76  2180     9   339  1832  1142   690     0  0.00     0     0    61     0 86.21 4.171   3.3     0     0  1072   293  1.06  0.80  64.1  21.0  2.18  0.00  0.00  0.00  0.00  0.00  0.00   1.4  0.00  0.00  0.17  0.28
 2023  26   147    64  15.7  -6.0 26.15  7.81  0.95  1.87 145.1  3.56 0.439  4.00  2313     9   356  1948  1211   737     0  0.00     0     0    61     0 86.21 4.436   3.1     0     0  1072   294  1.07  0.80  61.9  21.2  2.05  0.00  0.00  0.00  0.00  0.00  0.00   1.5  0.00  0.00  0.00  0.00
 2023  27   148    65  12.1  -6.0 26.15  7.89  0.96  1.87 117.1  3.73 0.461  4.19  2421     9   370  2042  1266   776     0  0.00     0     0    60     0 86.21 4.653   2.9     0     0  1072   294  1.08  0.80  60.3  27.3  2.29  0.00  0.00  0.00  0.00  0.00  0.00   2.0  0.00  0.00  0.00  0.00
 2023  28   149    66  15.6  -6.0 26.15  8.00  0.97  1.87 131.3  3.91 0.486  4.40  2542     9   385  2148  1328   820     0  0.00     0     0    60     0 86.21 4.942   2.8     0     0  1072   295  1.09  0.81  58.4  21.8  1.65  0.00  0.00  0.00  0.00  0.00  0.00   1.8  0.00  0.00  0.00  0.00
 2023  29   150    67  14.4  -6.0 26.15  8.09  0.97  1.87 160.2  4.13 0.516  4.65  2689     9   403  2277  1402   875     0  0.00     0     0    62     0 86.21 5.220   2.7     0     0  1072   295  1.11  0.81  56.0  17.5  1.18  0.00  0.00  0.09  0.00  0.00  0.00   1.5  0.00  0.00  0.00  0.00
 2023  30   151    68  14.6  -6.0 30.30  8.19  0.98  1.87 143.8  4.30 0.541  4.84  2818     9   419  2390  1467   923     0  0.00     0     0    68     0 90.42 5.513   2.8     0     0  1072   293  1.12  0.81  54.0  18.7  1.10  0.00  0.00  0.15  0.00  0.00  0.00   1.7  0.00  0.00  0.00  0.00
 2023  31   152    69  14.5  -6.0 30.99  8.29  0.98  1.72 136.0  4.46 0.564  5.02  2939     9   435  2495  1527   969     0  0.00     0     0    74     0 94.63 5.817   2.9     0     0  1072   292  1.13  0.81  52.1  17.6  0.92  0.16  0.08  0.29  0.00  0.00  0.00   2.0  0.00  0.00  0.00  0.00
 2023  32   153    70  13.4  -6.0 31.62  8.38  0.98  1.87 110.9  4.59 0.584  5.17  3037     9   447  2582  1575  1007     0  0.00     0     0    77     0 98.51 6.107   3.0     0     0  1072   291  1.14  0.82  50.7  23.6  1.11  0.00  0.00  0.15  0.00  0.00  0.00   2.0  0.00  0.00  0.00  0.00
 2023  33   154    71  15.9  -6.0 32.38  8.48  0.98  1.28 103.9  4.70 0.601  5.30  3127     9   460  2659  1617  1042     0  0.00     0     0    81     0 103.1 6.461   3.1     0     0  1072   291  1.15  0.79  49.4  15.8  0.68  0.64  0.32  0.48  0.00  0.00  0.00   2.0  0.00  0.00  0.00  0.00
 2023  34   155    72  16.9  -6.0 33.18  8.59  0.98  1.12  90.6  4.70 0.605  5.31  3182     9   471  2702  1644  1058     0  0.00     0     0   107     0 131.0 6.848   4.0     0     0  1072   286  1.17  0.78  95.2  29.4  0.60  0.81  0.40  0.54  0.00  0.00  0.00   2.0  0.00  0.00  0.00  0.00
 2023  35   156    73  16.9  -6.0 33.98  8.71  0.99  1.87 157.4  4.87 0.633  5.51  3323     9   487  2827  1710  1117     0  0.00     0     0   114     0 135.9 7.247   4.0     0     0  1072   285  1.18  0.82  86.6  25.7  3.55  0.00  0.00  0.00  0.00  0.00  0.00   2.0  0.00  0.00  0.00  0.00
 2023  36   157    74  18.1  -6.0 34.85  8.83  0.99  1.87 157.8  5.04 0.661  5.70  3464     9   503  2952  1775  1177     0  0.00     0     0   122     0 141.2 7.689   4.1     0     0  1072   284  1.19  0.83  81.6  23.6  4.15  0.00  0.00  0.00  0.00  0.00  0.00   2.0  0.00  0.00  0.00  0.00
 2023  37   158    75  16.7  -6.0 35.64  8.94  0.99  1.87 151.7  5.20 0.688  5.89  3600     9   518  3073  1837  1236     0  0.00     0     0   128     0 146.1 8.109   4.2     0     0  1072   283  1.21  0.83  79.3  24.8  4.48  0.00  0.00  0.00  0.00  0.00  0.00   2.0  0.00  0.00  0.00  0.00
 2023  38   159    76  16.2  -6.0 36.41  9.05  0.99  1.87 164.9  5.37 0.717  6.09  3749     9   534  3206  1903  1303     0  0.00     0     0   137     0 150.8 8.529   4.3     0     0  1072   282  1.22  0.83  76.6  22.4  3.97  0.00  0.00  0.00  0.00  0.00  0.00   2.0  0.00  0.00  0.00  0.00
 2023  39   160    77  18.1  -6.0 37.28  9.17  0.99  1.87 169.8  5.54 0.747  6.28  3902     9   550  3343  1970  1372     0  0.00     0     0   146     0 156.2 9.014   4.4     0     0  1072   281  1.22  0.84  72.8  19.6  3.16  0.00  0.00  0.00  0.00  0.00  0.00   2.0  0.00  0.00  0.00  0.00
 2023  40   161    78  15.1  -6.0 38.00  9.27  0.99  1.87 171.8  5.70 0.779  6.48  4057     9   567  3482  2037  1445     0  0.00     0     0   155     0 160.6 9.429   4.4     0     0  1072   280  1.22  0.84  69.1  19.4  2.58  0.00  0.00  0.00  0.00  0.00  0.00   2.0  0.00  0.00  0.00  0.00
 2023  41   162    79  17.1  -6.0 38.81  9.38  0.99  1.87 151.6  5.82 0.806  6.62  4194     9   580  3605  2094  1511     0  0.00     0     0   162     0 165.7 9.915   4.5     0     0  1044   278  1.22  0.84  65.8  20.1  2.24  0.00  0.00  0.00  0.00  0.00  0.00   2.0  0.00  0.00  0.00  0.00
 2023  42   163    80  14.0  -6.0 39.48  9.48  0.99  1.87  54.9  5.85 0.817  6.67  4241     9   585  3647  2111  1537     0  0.00     0     0   156     0 169.8 10.32   4.3     0     0  1022   277  1.22  0.85  64.7  59.4  5.53  0.00  0.00  0.00  0.00  0.00  0.00   2.0  0.00  0.00  0.00  0.00
 2023  43   164    81  15.7  -6.0 40.24  9.58  0.99  1.87 154.5  5.96 0.845  6.81  4381     9   599  3774  2168  1606     0  0.00     0     0   165     0 174.5 10.78   4.4     0     0   998   275  1.22  0.85  61.5  19.3  1.77  0.00  0.00  0.00  0.00  0.00  0.00   2.0  0.00  0.00  0.00  0.00
 2023  44   165    82  13.9  -6.0 40.94  9.58  0.99  3.02 168.3  5.90 0.866  6.76  4539     9   613  3917  2207  1700     0  0.00     0     0   218    10 174.5 11.20   5.6     0     0   978   267  1.22  0.85  59.4  28.9  2.29  0.00  0.00  0.00  0.00  0.00  0.00   2.0  0.00  0.00  0.00  0.00
 2023  45   166    83  13.7  -6.0 41.62  9.58  0.99  3.02 251.0  5.83 0.898  6.73  4775     9   635  4131  2217  1894     0  0.00     0     0   293    21 174.5 11.62   7.1     0     0   958   263  1.22  0.85  56.2  18.2  1.37  0.00  0.00  0.00  0.00  0.00  0.00   2.0  0.00  0.00  0.00  0.00
 2023  46   167    84  14.2  -6.0 42.33  9.58  0.99  3.02 258.4  5.77 0.932  6.70  5018     9   656  4353  2206  2116     0  0.00     0     0   370    31 174.5 12.07   8.6     0     0   938   261  1.22  0.86  56.8  17.8  1.13  0.00  0.00  0.13  0.00  0.00  0.00   2.0  0.00  0.00  0.00  0.00
 2023  47   168    85  14.1  -6.0 43.04  9.58  0.99  3.02 285.3  5.70 0.970  6.67  5287     9   680  4599  2194  2363     0  0.00     0     0   454    42 174.5 12.53  10.0     0     0   919   260  1.22  0.86  53.3  15.2  1.42  0.00  0.00  0.00  0.00  0.00  0.00   2.0  0.00  0.00  0.00  0.00
 2023  48   169    86  12.8  -6.0 43.68  9.58  0.99  3.02 205.6  5.64 0.997  6.64  5481     9   696  4777  2185  2541     0  0.00     0     0   518    52 174.5 12.97  11.0     0     0   902   258  1.22  0.87  97.4  39.1  1.45  0.00  0.00  0.00  0.00  0.00  0.00   2.0  0.00  0.00  0.00  0.00
 2023  49   170    87  17.4  -6.0 44.55  9.58  0.99  3.02 183.1  5.56 1.019  6.58  5654     9   710  4936  2169  2702     0  0.00     0     0   579    65 174.5 13.57  11.9     0     0   880   256  1.21  0.87 103.8  43.2  7.19  0.00  0.00  0.00  0.00  0.00  0.00   2.0  0.00  0.00  0.00  0.00
 2023  50   171    88  18.8  -6.0 45.49  9.58  0.99  3.02 160.5  5.48 1.037  6.51  5806     9   721  5076  2153  2844     0  0.00     0     0   635    79 174.5 14.24  12.7     0     0   857   254  1.21  0.87  90.4  41.6  9.39  0.00  0.00  0.00  0.00  0.00  0.00   2.0  0.00  0.00  0.00  0.00
 2023  51   172    89  18.3  -6.0 46.40  9.58  0.99  3.02 197.8  5.39 1.060  6.46  5993     9   735  5250  2137  3019     0  0.00     0     0   701    94 174.5 14.90  13.6     0     0   835   252  1.21  0.88  84.2  31.7  7.98  0.00  0.00  0.00  0.00  0.00  0.00   2.0  0.00  0.00  0.00  0.00
 2023  52   173    90  16.3  -6.0 47.22  9.58  0.99  3.02 182.7  5.32 1.083  6.41  6167     9   747  5411  2124  3180     0  0.00     0     0   762   106 174.5 15.50  14.4     0     0   817   251  1.21  0.88  82.3  35.4  9.29  0.00  0.00  0.00  0.00  0.00  0.00   2.0  0.00  0.00  0.00  0.00
 2023  53   174    91  15.3  -6.0 47.98  9.58  0.99  3.02 300.9  5.25 1.124  6.38  6453     9   767  5677  2111  3448     0  0.00     0     0   854   118 174.5 16.07  15.4     0     0   800   249  1.21  0.89  78.4  20.9  5.85  0.00  0.00  0.00  0.00  0.00  0.00   2.0  0.00  0.00  0.00  0.00
 2023  54   175    92  16.1  -6.0 48.79  9.58  0.99  3.02 302.2  5.18 1.165  6.35  6741     9   787  5946  2097  3719     0  0.00     0     0   947   131 174.5 16.69  16.3     0     0   783   247  1.21  0.89  74.4  19.1  5.30  0.00  0.00  0.00  0.00  0.00  0.00   2.0  0.00  0.00  0.00  0.00
 2023  55   176    93  13.1  -6.0 49.45  9.58  0.99  3.02 194.3  5.13 1.191  6.32  6927     9   799  6120  2086  3814     0  0.00    79    79  1010   141 174.5 17.21  16.9     0     0   769   246  1.21  0.89  72.0  30.6  7.04  0.00  0.00  0.00  0.00  0.00  0.00   2.0  0.00  0.00  0.00  0.00
 2023  56   177    94  15.6  -6.0 50.91  9.58  0.99  3.02 191.2  5.06 1.215  6.27  7110     9   810  6292  2071  3888     0  0.00   179   157  1074   153 174.5 17.83  17.5     0     0   754   244  1.21  0.90  69.5  28.5  5.91  0.00  0.00  0.00  0.00  0.00  0.00   2.0  0.00  0.00  0.00  0.00
 2023  57   178    95  17.0  -6.0 54.23  9.58  0.99  3.02 310.5  5.00 1.254  6.26  7408     9   827  6572  2063  4017     0  0.00   331   285  1166   162 174.5 18.52  18.2     0     0   737   243  1.21  0.90  65.4  16.2  3.05  0.00  0.00  0.00  0.00  0.00  0.00   2.0  0.00  0.00  0.00  0.00
 2023  58   179    96  16.0  -6.0 57.37  9.58  0.99  3.02 310.3  4.95 1.294  6.25  7707     9   842  6856  2055  4130     0  0.00   500   414  1260   170 174.5 19.18  18.8     0     0   722   241  1.21  0.91  61.2  15.3  2.39  0.00  0.00  0.00  0.00  0.00  0.00   2.0  0.00  0.00  0.00  0.00
 2023  59   180    97  16.1  -6.0 61.15  9.58  0.99  3.02 274.4  4.90 1.329  6.23  7972     9   854  7110  2047  4226     0  0.00   659   530  1344   179 174.5 19.86  19.4     0     0   708   239  1.21  0.93  57.6  16.2  2.09  0.00  0.00  0.00  0.00  0.00  0.00   2.0  0.00  0.00  0.00  0.00
 2023  60   181    98  12.6  -6.0 66.46  9.58  0.99  3.02  93.9  4.86 1.336  6.20  8063     9   857  7198  2042  4235     0  0.00   736   570  1377   185 174.5 20.40  19.6     0     0   697   238  1.21  0.94  56.4  51.0  5.36  0.00  0.00  0.00  0.00  0.00  0.00   2.0  0.00  0.00  0.00  0.00
 2023  61   182    99  14.6  -6.0 70.34  9.58  0.98  3.02 321.7  4.82 1.381  6.20  8377     9   867  7502  2034  4384     0  0.00   892   708  1476   193 174.5 21.03  20.2     0     0   685   237  1.21  0.95  52.5  13.3  1.40  0.00  0.00  0.00  0.00  0.00  0.00   2.0  0.00  0.00  0.00  0.00
 2023  62   183   100  14.9  -6.0 71.14  9.58  0.98  3.02 329.0  4.77 1.428  6.20  8700     9   875  7817  2026  4500     5  0.00  1084   856  1573   201 174.5 21.67  20.7 16446 .0000   673   235  1.21  0.96  48.2  11.7  1.04  0.00  0.00  0.20  0.00  0.00  0.00   2.0  0.00  0.00  0.00  0.00
 2023  63   184   101  14.5  -6.0 71.92  9.58  0.98  2.40 261.8  4.73 1.463  6.19  8955     9   883  8064  2018  4570    22  0.00  1245   986  1638   209 174.5 22.30  20.9 16446 .0001   661   234  1.21  0.95  44.7  10.7  0.79  0.41  0.21  0.39  0.00  0.00  0.00   2.0  0.00  0.00  0.00  0.00
 2023  64   185   102  15.5  -6.0 72.76  9.58  0.98  1.86 206.2  4.68 1.488  6.17  9156     9   890  8258  2010  4610    55  0.01  1367  1107  1672   217 174.5 22.99  20.9 16446 .0003   650   233  1.21  0.94  41.9   9.7  0.62  0.77  0.38  0.53  0.00  0.00  0.00   2.0  0.00  0.00  0.00  0.00
 2023  65   186   103  16.9  -6.0 73.67  9.58  0.98  1.59 169.6  4.54 1.479  6.01  9321     9   895  8417  1960  4662   108  0.01  1436  1160  1813   251 174.5 23.74  22.5 16446 .0007   637   231  1.21  0.94  39.5   9.3  0.53  0.95  0.47  0.60  0.00  0.00  0.00   2.0  0.00  0.00  0.00  0.00
 2023  66   187   104  16.9  -6.0 74.58  9.58  0.98  1.77 146.9  4.39 1.470  5.86  9464     9   898  8558  1911  4716   179  0.02  1467  1230  1917   285 174.5 24.49  23.7 16446 .0011   625   230  1.21  0.96  89.9  27.2  0.59  0.83  0.41  0.55  0.00  0.00  0.00   2.0  0.00  0.00  0.00  0.00
 2023  67   188   105  18.4  -6.0 75.57  9.58  0.98  3.02 292.7  4.34 1.460  5.80  9754     9   901  8845  1901  4853   274  0.03  1522  1326  2117   295 174.5 25.32  25.6 16446 .0017   613   228  1.21  0.98  85.8  21.6  4.17  0.00  0.00  0.00  0.00  0.00  0.00   2.0  0.00  0.00  0.00  0.00
 2023  68   189   106  19.7  -6.0 76.64  9.58  0.98  3.02 318.9  4.28 1.450  5.73 10069     9   904  9157  1889  4987   399  0.04  1576  1451  2316   306 174.5 26.21  27.4 16446 .0024   600   227  1.21  0.98  81.1  18.3  5.59  0.00  0.00  0.00  0.00  0.00  0.00   2.0  0.00  0.00  0.00  0.00
 2023  69   190   107  19.4  -6.0 77.68  9.58  0.97  3.02 331.8  4.23 1.440  5.67 10398     9   907  9483  1878  5115   546  0.06  1628  1598  2505   316 174.5 27.08  29.1 16446 .0033   588   225  1.21  0.98  76.3  16.6  5.60  0.00  0.00  0.00  0.00  0.00  0.00   2.0  0.00  0.00  0.00  0.00
 2023  70   191   108  19.6  -6.0 78.74  9.58  0.97  3.02 327.0  4.17 1.430  5.60 10721     9   910  9803  1866  5221   718  0.07  1671  1770  2664   327 174.5 27.97  30.4 16446 .0044   576   224  1.21  0.98  71.5  15.8  4.96  0.00  0.00  0.00  0.00  0.00  0.00   2.0  0.00  0.00  0.00  0.00
 2023  71   192   109  22.8  -6.0 79.97  9.58  0.97  3.02 325.1  4.11 1.419  5.53 11043     9   913 10122  1852  5287   944  0.09  1700  1996  2769   339 174.5 29.01  31.3 16446 .0057   562   222  1.21  0.98  66.5  13.9  3.43  0.00  0.00  0.00  0.00  0.00  0.00   2.0  0.00  0.18  0.00  0.00
 2023  72   193   110  22.0  -6.0 80.40  9.58  0.97  3.02 331.9  4.05 1.408  5.46 11371     9   916 10447  1839  5340  1194  0.11  1723  2246  2856   351 174.5 30.01  32.1 16446 .0073   550   220  1.21  0.98  61.4  12.8  2.44  0.00  0.00  0.00  0.00  0.00  0.00   2.0  0.00  0.13  0.00  0.00
 2023  73   194   111  19.8  -6.0 80.76  9.58  0.97  3.02 340.2  4.02 1.399  5.42 11707     9   919 10780  1838  5413  1423  0.13  1751  2475  2964   355 174.5 30.92  32.9 16446 .0087   540   219  1.21  0.98  56.4  11.9  1.77  0.00  0.00  0.00  0.00  0.00  0.00   2.0  0.00  0.00  0.00  0.00
 2023  74   195   112  19.5  -6.0 81.12  9.58  0.97  3.02 298.9  3.99 1.390  5.38 12003     9   921 11073  1836  5459  1649  0.15  1770  2700  3036   359 174.5 31.81  33.5 16446 .0100   530   217  1.21  0.98  52.0  12.6  1.47  0.00  0.00  0.00  0.00  0.00  0.00   2.0  0.00  0.00  0.00  0.00
 2023  75   196   113  20.5  -6.0 81.50  9.58  0.97  3.02 273.8  3.96 1.381  5.34 12274     9   924 11342  1835  5479  1886  0.17  1778  2938  3071   364 174.5 32.76  33.8 16446 .0115   520   216  1.21  0.98  48.0  12.6  1.20  0.00  0.00  0.07  0.00  0.00  0.00   2.0  0.00  0.03  0.00  0.00
 2023  76   197   114  20.0  -6.0 81.86  9.58  0.97  3.02 117.0  3.93 1.372  5.30 12389     9   924 11456  1833  5392  2118  0.18  1744  3170  2958   368 174.5 33.68  33.0 16446 .0129   511   214  1.21  0.98 100.4  63.1  2.23  0.00  0.00  0.00  0.00  0.00  0.00   2.0  0.00  0.00  0.00  0.00
 2023  77   198   115  19.0  -6.0 82.22  9.58  0.97  3.02 318.7  3.90 1.364  5.27 12704     9   927 11769  1832  5456  2339  0.20  1769  3391  3054   372 174.5 34.56  33.7 16446 .0142   502   213  1.20  0.98 116.6  27.1  4.89  0.00  0.00  0.00  0.00  0.00  0.00   2.0  0.00  0.00  0.00  0.00
 2023  78   199   116  19.0  -6.0 82.57  9.58  0.97  3.02 334.5  3.88 1.356  5.23 13035     9   930 12096  1830  5531  2560  0.21  1799  3612  3165   376 174.5 35.44  34.5 16446 .0156   494   212  1.20  0.98  99.3  21.9  5.86  0.00  0.00  0.00  0.00  0.00  0.00   2.0  0.00  0.00  0.00  0.00
 2023  79   200   117  19.0  -6.0 82.92  9.58  0.96  3.02 331.3  3.85 1.348  5.20 13363     9   933 12421  1828  5604  2781  0.22  1828  3832  3273   380 174.5 36.33  35.3 16446 .0169   486   211  1.20  0.98  85.2  19.1  5.66  0.00  0.00  0.00  0.00  0.00  0.00   2.0  0.00  0.00  0.00  0.00
 2023  80   201   118  20.1  -6.0 83.29  9.58  0.96  3.02 328.1  3.82 1.340  5.16 13687     9   936 12742  1826  5666  3013  0.24  1852  4065  3366   385 174.5 37.27  36.0 16446 .0183   478   209  1.20  0.98  80.3  18.0  6.15  0.00  0.00  0.00  0.00  0.00  0.00   2.0  0.00  0.01  0.00  0.00
 2023  81   202   119  20.2  -6.0 83.66  9.58  0.96  3.02 327.8  3.80 1.331  5.13 14012     9   939 13064  1824  5727  3248  0.25  1876  4300  3457   389 174.5 38.22  36.7 16446 .0197   471   208  1.20  0.98  75.4  16.5  5.64  0.00  0.00  0.00  0.00  0.00  0.00   2.0  0.00  0.02  0.00  0.00
 2023  82   203   120  19.6  -6.0 84.02  9.58  0.96  3.02 340.6  3.77 1.324  5.09 14348     9   943 13397  1822  5801  3475  0.26  1905  4527  3568   393 174.5 39.14  37.4 16446 .0211   464   207  1.20  0.98  70.4  15.1  4.74  0.00  0.00  0.00  0.00  0.00  0.00   2.0  0.00  0.00  0.00  0.00
 2023  83   204   121  17.6  -6.0 84.35  9.58  0.96  3.02 363.5  3.75 1.317  5.06 14708     9   946 13754  1821  5909  3679  0.27  1947  4731  3724   397 174.5 39.97  38.5 16446 .0224   457   206  1.20  0.98  65.3  13.7  3.38  0.00  0.00  0.00  0.00  0.00  0.00   2.0  0.00  0.00  0.00  0.00
 2023  84   205   122  17.1  -6.0 84.66  9.58  0.96  3.02 348.7  3.72 1.311  5.03 15053     9   949 14095  1819  6011  3877  0.28  1987  4929  3871   401 174.5 40.78  39.4 16446 .0236   452   205  1.20  0.98  60.4  13.3  2.60  0.00  0.00  0.00  0.00  0.00  0.00   2.0  0.00  0.00  0.00  0.00
 2023  85   206   123  17.5  -6.0 84.98  9.58  0.96  3.02 351.3  3.70 1.304  5.01 15401     9   953 14440  1817  6111  4080  0.28  2027  5132  4017   405 174.5 41.61  40.3 16446 .0248   446   204  1.20  0.98  55.4  11.9  1.85  0.00  0.00  0.00  0.00  0.00  0.00   2.0  0.00  0.00  0.00  0.00
 2023  86   207   124  17.5  -6.0 85.31  9.58  0.95  3.02 272.7  3.52 1.298  4.82 15671     9   955 14707  1736  6168  4283  0.29  2064  5335  4132   456 174.5 42.44  41.5 16446 .0260   441   203  1.20  0.98  87.1  24.2  1.73  0.00  0.00  0.00  0.00  0.00  0.00   2.0  0.00  0.00  0.00  0.00
 2023  87   208   125  18.8  -6.0 85.65  9.58  0.94  3.02 325.5  3.34 1.291  4.63 15993     9   958 15026  1654  6251  4500  0.30  2112  5552  4285   507 174.5 43.34  42.8 16446 .0274   435   202  1.20  0.98  82.3  18.6  5.66  0.00  0.00  0.00  0.00  0.00  0.00   2.0  0.00  0.00  0.00  0.00
 2023  88   209   126  18.0  -6.0 85.98  9.58  0.93  3.02 334.1  3.14 1.285  4.43 16323     9   961 15353  1566  6349  4709  0.31  2167  5761  4459   562 174.5 44.20  44.2 16446 .0286   430   201  1.20  0.98  77.4  17.3  6.23  0.00  0.00  0.00  0.00  0.00  0.00   2.0  0.00  0.00  0.00  0.00
 2023  89   210   127  19.3  -6.0 86.34  9.58  0.92  3.02 326.2  2.95 1.278  4.23 16646     9   964 15673  1481  6430  4933  0.31  2215  5984  4608   616 174.5 45.13  45.5 16446 .0300   425   200  1.20  0.98  72.4  16.3  5.71  0.00  0.00  0.00  0.00  0.00  0.00   2.0  0.00  0.00  0.00  0.00
[...]
 2023  37   158    65  16.7  -6.0 34.39  7.80  0.61  0.69  33.8  1.43 0.183  1.61  1074    15   204   854   502   352     0  0.00     0     0    70     0 161.8 3.427   8.2     0     0   578   285  1.06  0.76  46.1  25.9  0.32  1.00  0.68  0.75  0.00  0.00  0.00   2.0  0.00  0.00  0.00  0.00
 2023  38   159    66  16.2  -6.0 35.17  7.91  0.61  0.63  33.9  1.45 0.187  1.64  1097    15   209   873   511   362     0  0.00     0     0    73     0 168.7 3.592   8.4     0     0   578   284  1.07  0.76  46.6  24.3  0.30  1.00  0.70  0.77  0.00  0.00  0.00   2.0  0.00  0.00  0.00  0.00
 2023  39   160    67  18.1  -6.0 36.03  8.03  0.61  0.57  31.8  1.47 0.190  1.66  1119    15   213   890   518   372     0  0.00     0     0    75     0 175.6 3.782   8.5     0     0   578   283  1.08  0.76  47.1  22.6  0.27  1.00  0.73  0.79  0.00  0.00  0.00   2.0  0.00  0.00  0.00  0.00
 2023  40   161    68  15.1  -6.0 36.75  8.13  0.62  0.58  33.1  1.48 0.194  1.67  1142    15   218   908   526   382     0  0.00     0     0    78     0 182.6 3.943   8.6     0     0   578   281  1.10  0.76  47.5  23.6  0.27  1.00  0.73  0.79  0.00  0.00  0.00   2.0  0.00  0.00  0.00  0.00
 2023  41   162    69  17.1  -6.0 37.57  8.25  0.62  0.62  31.3  1.49 0.198  1.69  1163    15   222   925   533   392     0  0.00     0     0    80     0 189.8 4.129   8.7     0     0   578   280  1.11  0.77  48.0  25.8  0.29  1.00  0.71  0.77  0.00  0.00  0.00   2.0  0.00  0.00  0.00  0.00
 2023  42   163    70  14.0  -6.0 38.23  8.34  0.63  1.83  33.6  1.54 0.205  1.75  1194    15   225   953   552   401     0  0.00     0     0    76     0 189.8 4.285   8.0     0     0   578   279  1.12  0.83  48.4  77.7  0.86  0.27  0.14  0.34  0.00  0.00  0.00   2.0  0.00  0.00  0.00  0.00
 2023  43   164    71  15.7  -6.0 38.98  8.45  0.63  0.60  31.6  1.55 0.209  1.76  1215    15   229   970   558   413     0  0.00     0     0    79     0 197.2 4.462   8.2     0     0   578   278  1.14  0.77  48.8  26.3  0.28  1.00  0.72  0.78  0.00  0.00  0.00   2.0  0.00  0.00  0.00  0.00
 2023  44   165    72  13.9  -6.0 39.64  8.54  0.64  0.92  32.8  1.56 0.212  1.77  1237    15   233   989   564   425     0  0.00     0     0    82     0 204.6 4.621   8.3     0     0   578   277  1.15  0.79  49.1  41.1  0.44  1.00  0.56  0.66  0.00  0.00  0.00   2.0  0.00  0.00  0.00  0.00
 2023  45   166    73  13.7  -6.0 40.31  8.63  0.64  0.60  32.1  1.57 0.216  1.79  1259    15   238  1006   569   437     0  0.00     0     0    85     0 212.2 4.781   8.5     0     0   578   276  1.16  0.78  49.5  27.3  0.28  1.00  0.72  0.78  0.00  0.00  0.00   2.0  0.00  0.00  0.00  0.00
 2023  46   167    74  14.2  -6.0 41.02  8.63  0.63  0.74  40.5  1.53 0.216  1.74  1296    15   243  1037   555   472     0  0.00     0     0   105    10 212.2 4.949  10.2     0     0   578   275  1.17  0.78  50.8  27.1  0.27  1.00  0.73  0.79  0.00  0.00  0.00   2.0  0.00  0.00  0.00  0.00
 2023  47   168    75  14.1  -6.0 41.72  8.63  0.62  0.70  42.1  1.49 0.218  1.70  1334    15   248  1070   541   509     0  0.00     0     0   125    20 212.2 5.121  11.9     0     0   578   275  1.18  0.78  50.2  24.5  0.26  1.00  0.74  0.80  0.00  0.00  0.00   2.0  0.00  0.00  0.00  0.00
 2023  48   169    76  12.8  -6.0 42.36  8.63  0.61  0.97  41.1  1.44 0.219  1.66  1371    15   253  1103   528   545     0  0.00     0     0   145    30 212.2 5.280  13.5     0     0   571   273  1.19  0.79  50.4  35.4  0.36  1.00  0.64  0.72  0.00  0.00  0.00   2.0  0.00  0.00  0.00  0.00
 2023  49   170    77  17.4  -6.0 43.23  8.63  0.60  1.02  37.9  1.40 0.219  1.61  1406    15   257  1133   513   580     0  0.00     0     0   164    40 212.2 5.500  15.0     0     0   561   272  1.20  0.80  56.4  41.9  0.38  1.00  0.62  0.71  0.00  0.00  0.00   2.0  0.00  0.00  0.00  0.00
 2023  50   171    78  18.8  -6.0 44.17  8.63  0.59  2.71  86.3  1.38 0.231  1.61  1487    15   264  1208   509   655     0  0.00     0     0   190    44 212.2 5.742  16.3     0     0   550   270  1.20  0.87  54.1  44.9  1.12  0.00  0.00  0.14  0.00  0.00  0.00   2.0  0.00  0.00  0.00  0.00
 2023  51   172    79  18.3  -6.0 45.09  8.63  0.58  1.34  52.2  1.33 0.234  1.56  1536    15   269  1251   495   702     0  0.00     0     0   213    54 212.2 5.983  17.8     0     0   541   268  1.20  0.82  52.1  35.8  0.49  1.00  0.51  0.62  0.00  0.00  0.00   2.0  0.00  0.00  0.00  0.00
 2023  52   173    80  16.3  -6.0 45.90  8.63  0.57  1.40  49.4  1.29 0.236  1.52  1581    15   274  1292   482   746     0  0.00     0     0   235    64 212.2 6.203  19.1     0     0   533   267  1.20  0.83  51.2  41.1  0.52  0.96  0.48  0.60  0.00  0.00  0.00   2.0  0.00  0.00  0.00  0.00
 2023  53   174    81  15.3  -6.0 46.67  8.63  0.55  0.85  48.2  1.24 0.239  1.48  1626    15   280  1331   469   789     0  0.00     0     0   256    73 212.2 6.413  20.4     0     0   525   265  1.20  0.81  50.5  25.7  0.31  1.00  0.69  0.76  0.00  0.00  0.00   2.0  0.00  0.00  0.00  0.00
 2023  54   175    82  16.1  -6.0 47.48  8.63  0.54  0.81  45.5  1.20 0.241  1.44  1668    15   284  1368   456   830     0  0.00     0     0   277    82 212.2 6.639  21.5     0     0   517   264  1.20  0.81  49.9  25.1  0.30  1.00  0.70  0.77  0.00  0.00  0.00   2.0  0.00  0.00  0.00  0.00
 2023  55   176    83  13.1  -6.0 48.14  8.63  0.53  1.34  47.3  1.17 0.244  1.41  1712    15   289  1408   444   873     0  0.00     0     0   297    91 212.2 6.826  22.5     0     0   511   263  1.20  0.84  49.3  42.0  0.50  1.00  0.50  0.62  0.00  0.00  0.00   2.0  0.00  0.00  0.00  0.00
 2023  56   177    84  15.6  -6.0 48.92  8.63  0.52  1.29  43.8  1.13 0.246  1.37  1753    15   293  1444   431   897     0  0.00    17    17   317   100 212.2 7.052  23.6     0     0   504   261  1.20  0.84  48.7  40.8  0.48  1.00  0.52  0.63  0.00  0.00  0.00   2.0  0.00  0.00  0.00  0.00
 2023  57   178    85  17.0  -6.0 49.77  8.63  0.51  0.78  41.9  1.09 0.248  1.34  1791    15   297  1479   418   911     0  0.00    41    32   336   109 212.2 7.301  24.5     0     0   497   260  1.20  0.82  48.1  24.8  0.29  1.00  0.71  0.78  0.00  0.00  0.00   2.0  0.00  0.00  0.00  0.00
 2023  58   179    86  16.0  -6.0 51.58  8.63  0.49  0.79  41.5  1.05 0.250  1.30  1830    15   301  1513   406   925     0  0.00    65    48   355   117 212.2 7.538  25.4     0     0   490   259  1.20  0.83  47.5  25.4  0.29  1.00  0.71  0.78  0.00  0.00  0.00   2.0  0.00  0.00  0.00  0.00
 2023  59   180    87  16.1  -6.0 53.83  8.63  0.48  0.89  40.4  1.02 0.254  1.27  1867    15   305  1547   396   937     0  0.00    89    63   372   124 212.2 7.781  26.1     0     0   484   257  1.20  0.84  46.9  28.9  0.33  1.00  0.67  0.75  0.00  0.00  0.00   2.0  0.00  0.00  0.00  0.00
 2023  60   181    88  12.6  -6.0 55.59  8.63  0.48  2.71  41.3  1.01 0.259  1.27  1907    15   307  1585   395   949     0  0.00   115    81   385   125 212.2 7.973  26.4     0     0   479   256  1.20  0.92  46.4  93.8  1.05  0.00  0.00  0.19  0.00  0.00  0.00   2.0  0.00  0.00  0.00  0.00
 2023  61   182    89  14.6  -6.0 57.63  8.63  0.47  0.78  40.6  0.98 0.264  1.25  1945    15   310  1620   386   961     0  0.00   141    97   402   132 212.2 8.198  27.0     0     0   473   255  1.20  0.86  45.9  26.0  0.29  1.00  0.71  0.78  0.00  0.00  0.00   2.0  0.00  0.00  0.00  0.00
 2023  62   183    90  14.9  -6.0 59.71  8.63  0.46  0.75  39.0  0.96 0.268  1.22  1982    15   313  1654   377   973     0  0.00   165   112   418   138 212.2 8.429  27.6     0     0   467   254  1.20  0.87  45.3  25.2  0.28  1.00  0.72  0.79  0.00  0.00  0.00   2.0  0.00  0.00  0.00  0.00
 2023  63   184    91  14.5  -6.0 64.76  8.63  0.45  0.74  38.0  0.93 0.272  1.20  2018    15   315  1687   368   985     0  0.00   190   127   435   145 212.2 8.655  28.2     0     0   462   253  1.20  0.88  44.8  25.2  0.27  1.00  0.73  0.79  0.00  0.00  0.00   2.0  0.00  0.00  0.00  0.00
 2023  64   185    92  15.5  -6.0 70.12  8.63  0.44  0.71  36.2  0.90 0.276  1.18  2052    15   318  1719   359   996     0  0.00   213   142   451   151 212.2 8.899  28.7     0     0   457   251  1.20  0.88  44.3  24.4  0.26  1.00  0.74  0.80  0.00  0.00  0.00   2.0  0.00  0.00  0.00  0.00
 2023  65   186    93  16.9  -6.0 71.16  8.63  0.43  0.72  34.6  0.87 0.279  1.15  2085    15   320  1750   350  1006     0  0.00   237   156   466   157 212.2 9.168  29.2  3810 .0000   451   250  1.20  0.90  43.8  25.0  0.27  1.00  0.73  0.80  0.00  0.00  0.00   2.0  0.00  0.00  0.00  0.00
 2023  66   187    94  16.9  -6.0 72.20  8.63  0.42  0.92  33.8  0.85 0.283  1.13  2117    15   321  1781   341  1013     5  0.00   258   175   476   163 212.2 9.437  29.5  3810 .0001   445   249  1.20  0.91  43.3  32.6  0.34  1.00  0.66  0.74  0.00  0.00  0.00   2.0  0.00  0.00  0.00  0.00
 2023  67   188    95  18.4  -6.0 73.33  8.63  0.41  0.77  32.1  0.82 0.281  1.10  2148    15   322  1810   332  1021    15  0.01   273   185   502   170 212.2 9.732  30.9  3810 .0004   439   248  1.20  0.92  42.9  27.4  0.28  1.00  0.72  0.78  0.00  0.00  0.00   2.0  0.00  0.00  0.00  0.00
 2023  68   189    96  19.7  -6.0 74.54  8.63  0.40  0.68  30.5  0.79 0.279  1.07  2177    15   323  1839   323  1031    32  0.02   278   201   520   176 212.2 10.05  31.9  3810 .0008   433   246  1.20  0.93  42.4  24.8  0.25  1.00  0.75  0.81  0.00  0.00  0.00   2.0  0.00  0.00  0.00  0.00
 2023  69   190    97  19.4  -6.0 75.74  8.63  0.39  0.66  29.9  0.77 0.277  1.05  2206    15   324  1867   314  1036    54  0.03   281   223   533   182 212.2 10.36  32.7  3810 .0014   427   245  1.20  0.94  42.0  24.3  0.24  1.00  0.76  0.81  0.00  0.00  0.00   2.0  0.00  0.00  0.00  0.00
 2023  70   191    98  19.6  -6.0 76.95  8.63  0.38  0.66  29.0  0.74 0.275  1.02  2234    15   324  1895   305  1037    82  0.04   282   251   538   188 212.2 10.68  33.1  3810 .0021   422   244  1.20  0.96  41.6  24.9  0.25  1.00  0.75  0.81  0.00  0.00  0.00   2.0  0.00  0.00  0.00  0.00
 2023  71   192    99  22.8  -6.0 78.35  8.63  0.37  0.63  26.6  0.72 0.273  0.99  2260    15   324  1920   296  1028   121  0.06   281   291   531   194 212.2 11.05  33.1  3810 .0032   415   242  1.20  0.97  41.1  24.0  0.23  1.00  0.77  0.82  0.00  0.00  0.00   2.0  0.00  0.18  0.00  0.00
 2023  72   193   100  22.0  -6.0 79.71  8.63  0.36  0.63  26.4  0.69 0.271  0.96  2286    15   324  1946   288  1014   167  0.09   278   336   517   200 212.2 11.41  32.7  3810 .0044   409   241  1.20  0.98  40.7  24.3  0.23  1.00  0.77  0.82  0.00  0.00  0.00   2.0  0.00  0.13  0.00  0.00
 2023  73   194   101  19.8  -6.0 80.25  8.63  0.35  0.63  26.7  0.67 0.269  0.94  2312    15   324  1972   280   998   214  0.11   274   384   501   206 212.2 11.73  32.3  3810 .0056   404   239  1.20  0.98  40.3  25.0  0.23  1.00  0.77  0.82  0.00  0.00  0.00   2.0  0.00  0.00  0.00  0.00
 2023  74   195   102  19.5  -6.0 80.58  8.63  0.35  0.73  26.1  0.65 0.267  0.92  2338    15   324  1998   274   981   264  0.13   269   433   482   210 212.2 12.04  31.6  3810 .0069   400   238  1.20  0.98  40.0  29.2  0.27  1.00  0.73  0.79  0.00  0.00  0.00   2.0  0.00  0.00  0.00  0.00
 2023  75   196   103  20.5  -6.0 80.93  8.63  0.34  0.78  25.2  0.63 0.265  0.90  2362    15   324  2023   268   961   315  0.16   264   485   459   214 212.2 12.38  30.7  3810 .0083   395   237  1.20  0.98  39.6  31.9  0.29  1.00  0.71  0.78  0.00  0.00  0.00   2.0  0.00  0.03  0.00  0.00
 2023  76   197   104  20.0  -6.0 81.27  8.63  0.34  1.86  25.2  0.63 0.263  0.89  2387    15   324  2047   268   941   366  0.18   258   536   433   215 212.2 12.70  29.5  3810 .0096   390   235  1.20  0.98  50.4  99.4  0.69  0.62  0.31  0.47  0.00  0.00  0.00   2.0  0.00  0.00  0.00  0.00
 2023  77   198   105  19.0  -6.0 81.59  8.63  0.33  2.71  99.3  0.63 0.262  0.89  2485    15   325  2145   268   978   414  0.19   269   584   483   215 212.2 13.01  31.9  3810 .0109   386   234  1.20  0.98  76.2  54.4  2.19  0.00  0.00  0.00  0.00  0.00  0.00   2.0  0.00  0.00  0.00  0.00
 2023  78   199   106  19.0  -6.0 81.91  8.63  0.33  2.71 103.8  0.62 0.260  0.88  2588    15   326  2246   268  1018   463  0.21   282   632   537   216 212.2 13.32  34.2  3810 .0121   382   233  1.20  0.98  72.3  49.5  5.07  0.00  0.00  0.00  0.00  0.00  0.00   2.0  0.00  0.00  0.00  0.00
 2023  79   200   107  19.0  -6.0 82.23  8.63  0.33  2.71 102.4  0.62 0.258  0.88  2689    15   327  2347   267  1058   511  0.22   295   681   590   216 212.2 13.63  36.4  3810 .0134   378   232  1.20  0.98  70.8  49.9  5.52  0.00  0.00  0.00  0.00  0.00  0.00   2.0  0.00  0.00  0.00  0.00
 2023  80   201   108  20.1  -6.0 82.57  8.63  0.33  2.71 101.1  0.62 0.257  0.87  2789    15   328  2446   267  1094   562  0.23   306   731   638   217 212.2 13.96  38.3  3810 .0147   374   231  1.20  0.98  69.2  49.3  5.38  0.00  0.00  0.00  0.00  0.00  0.00   2.0  0.00  0.01  0.00  0.00
 2023  81   202   109  20.2  -6.0 82.91  8.63  0.33  2.71 100.6  0.61 0.255  0.87  2889    15   329  2544   267  1129   613  0.24   318   783   686   217 212.2 14.29  40.0  3810 .0161   370   230  1.20  0.98  67.7  47.2  4.32  0.00  0.00  0.00  0.00  0.00  0.00   2.0  0.00  0.02  0.00  0.00
 2023  82   203   110  19.6  -6.0 83.24  8.63  0.33  2.71 104.1  0.61 0.254  0.86  2992    15   330  2646   267  1169   662  0.25   330   832   739   218 212.2 14.61  41.9  3810 .0174   367   229  1.20  0.98  66.1  45.5  3.54  0.00  0.00  0.00  0.00  0.00  0.00   2.0  0.00  0.00  0.00  0.00
 2023  83   204   111  17.6  -6.0 83.54  8.63  0.33  2.71 110.8  0.61 0.252  0.86  3101    15   331  2755   267  1217   707  0.26   346   877   804   219 212.2 14.90  43.9  3810 .0186   364   228  1.20  0.98  64.5  43.4  2.97  0.00  0.00  0.00  0.00  0.00  0.00   2.0  0.00  0.00  0.00  0.00
 2023  84   205   112  17.1  -6.0 83.83  8.63  0.32  2.71 105.9  0.60 0.251  0.85  3206    15   332  2859   267  1263   750  0.26   360   920   865   219 212.2 15.19  45.8  3810 .0197   361   227  1.20  0.98  63.0  44.8  2.76  0.00  0.00  0.00  0.00  0.00  0.00   2.0  0.00  0.00  0.00  0.00
 2023  85   206   113  17.5  -6.0 84.12  8.63  0.32  2.71 106.4  0.60 0.250  0.85  3311    15   333  2963   266  1308   794  0.27   375   964   926   220 212.2 15.48  47.5  3810 .0209   358   226  1.20  0.98  61.5  42.8  2.33  0.00  0.00  0.00  0.00  0.00  0.00   2.0  0.00  0.00  0.00  0.00
 2023  86   207   114  17.5  -6.0 84.42  8.63  0.32  2.71  82.3  0.60 0.248  0.85  3393    15   334  3044   266  1335   839  0.28   383  1009   962   220 212.2 15.77  48.5  3810 .0220   355   225  1.20  0.98  60.3  54.2  2.52  0.00  0.00  0.00  0.00  0.00  0.00   2.0  0.00  0.00  0.00  0.00
 2023  87   208   115  18.8  -6.0 84.73  8.63  0.32  2.71  98.6  0.60 0.247  0.84  3490    15   334  3140   266  1372   886  0.28   395  1056  1012   221 212.2 16.08  49.8  3810 .0233   353   224  1.20  0.98  58.9  43.0  1.80  0.00  0.00  0.00  0.00  0.00  0.00   2.0  0.00  0.00  0.00  0.00
 2023  88   209   116  18.0  -6.0 85.04  8.63  0.32  2.71 101.6  0.59 0.246  0.84  3591    15   335  3240   266  1413   932  0.29   408  1102  1067   221 212.2 16.38  51.1  3810 .0245   350   223  1.20  0.98  57.4  41.2  1.51  0.00  0.00  0.00  0.00  0.00  0.00   2.0  0.00  0.00  0.00  0.00
 2023  89   210   117  19.3  -6.0 85.36  8.63  0.32  2.71  99.9  0.59 0.244  0.83  3689    15   336  3338   265  1450   981  0.29   420  1150  1116   222 212.2 16.71  52.3  3810 .0257   347   222  1.20  0.98  56.0  39.9  1.30  0.00  0.00  0.00  0.00  0.00  0.00   2.0  0.00  0.00  0.00  0.00
 2023  90   211   118  18.7  -6.0 85.68  8.63  0.32  2.71 109.8  0.59 0.243  0.83  3798    15   337  3445   265  1495  1028  0.30   435  1198  1177   222 212.2 17.02  53.6  3810 .0270   345   221  1.20  0.98  54.4  35.9  1.04  0.00  0.00  0.20  0.00  0.00  0.00   2.0  0.00  0.00  0.00  0.00
 2023  91   212   119  19.4  -6.0 86.00  8.63  0.32  2.46  96.8  0.58 0.242  0.82  3894    15   338  3540   265  1530  1077  0.30   446  1247  1224   223 212.2 17.35  54.6  3810 .0283   342   220  1.20  0.98  53.0  35.4  0.91  0.18  0.09  0.30  0.00  0.00  0.00   2.0  0.00  0.00  0.00  0.00
 2023  92   213   120  20.8  -6.0 86.35  8.63  0.31  2.18  83.1  0.58 0.240  0.82  3976    15   339  3622   264  1552  1130  0.31   453  1299  1253   224 212.2 17.70  55.2  3810 .0296   340   219  1.20  0.98  51.7  34.6  0.80  0.39  0.20  0.38  0.00  0.00  0.00   2.0  0.00  0.06  0.00  0.00
 2023  93   214   121  18.6  -6.0 86.67  8.63  0.31  2.14  77.5  0.58 0.239  0.82  4052    15   339  3698   264  1573  1177  0.32   459  1347  1282   224 212.2 18.02  55.8  3810 .0309   338   218  1.20  0.98  50.6  37.1  0.79  0.42  0.21  0.39  0.00  0.00  0.00   2.0  0.00  0.00  0.00  0.00
 2023  94   215   122  17.1  -6.0 86.96  8.63  0.31  1.86  73.9  0.57 0.238  0.81  4125    15   340  3770   264  1595  1220  0.32   466  1390  1312   225 212.2 18.31  56.4  3810 .0320   336   218  1.20  0.98  49.6  34.8  0.69  0.63  0.31  0.47  0.00  0.00  0.00   2.0  0.00  0.00  0.00  0.00
 2023  95   216   123  15.9  -6.0 87.22  8.63  0.31  1.79  69.6  0.57 0.237  0.81  4194    15   340  3838   264  1616  1260  0.33   473  1430  1341   225 212.2 18.58  57.0  3810 .0331   334   217  1.20  0.98  48.7  35.7  0.66  0.68  0.34  0.49  0.00  0.00  0.00   2.0  0.00  0.00  0.00  0.00
 2023  96   217   124  15.9  -6.0 87.49  8.63  0.29  1.56  63.6  0.53 0.236  0.77  4257    15   341  3901   247  1636  1300  0.33   482  1469  1374   235 212.2 18.85  58.1  3810 .0341   332   216  1.20  0.98  47.8  33.1  0.58  0.84  0.42  0.56  0.00  0.00  0.00   2.0  0.00  0.00  0.00  0.00
 2023  97   218   125  17.3  -6.0 87.78  8.63  0.28  1.50  57.7  0.50 0.235  0.73  4314    15   341  3957   231  1649  1343  0.34   489  1513  1396   245 212.2 19.14  58.9  3810 .0353   330   215  1.20  0.98  47.0  33.4  0.55  0.89  0.45  0.57  0.00  0.00  0.00   2.0  0.00  0.00  0.00  0.00
 2023  98   219   126  19.2  -6.0 88.11  8.63  0.26  1.42  51.9  0.46 0.234  0.69  4365    15   342  4008   213  1654  1392  0.35   493  1562  1409   256 212.2 19.47  59.7  3810 .0365   328   215  1.20  0.98  46.2  33.2  0.52  0.95  0.48  0.60  0.00  0.00  0.00   2.0  0.00  0.00  0.00  0.00
 2023  99   220   127  20.0  -6.0 88.45  8.63  0.24  1.40  48.1  0.42 0.232  0.65  4412    15   342  4055   195  1649  1443  0.36   498  1612  1416   270 212.2 19.81  60.5  3810 .0379   326   214  1.20  0.98  45.5  34.2  0.52  0.97  0.48  0.60  0.00  0.00  0.00   2.0  0.00  0.00  0.00  0.00
 2023 100   221   128  19.5  -6.0 88.77  8.63  0.22  1.56  45.9  0.38 0.230  0.61  4458    15   342  4100   176  1644  1492  0.36   503  1662  1423   285 212.2 20.14  61.3  3810 .0392   325   213  1.20  0.98  44.8  39.6  0.58  0.85  0.42  0.56  0.00  0.00  0.00   2.0  0.00  0.00  0.00  0.00
 2023 101   222   129  21.5  -6.0 89.14  8.63  0.20  1.51  42.1  0.34 0.228  0.56  4499    15   342  4142   158  1632  1546  0.37   505  1716  1421   300 212.2 20.51  61.9  3810 .0406   323   212  1.20  0.98  44.2  39.9  0.56  0.88  0.44  0.57  0.00  0.00  0.00   2.0  0.00  0.10  0.00  0.00
 2023 102   223   130  20.7  -6.0 89.49  8.63  0.18  1.64  41.0  0.30 0.225  0.53  4539    15   342  4182   142  1620  1599  0.38   508  1768  1418   313 212.2 20.87  62.5  3810 .0420   321   211  1.20  0.98  43.6  44.9  0.61  0.79  0.39  0.53  0.00  0.00  0.00   2.0  0.00  0.04  0.00  0.00
 2023 103   224   131  20.1  -6.0 89.83  8.63  0.16  2.11  40.3  0.27 0.223  0.49  4579    15   343  4221   127  1609  1650  0.39   510  1819  1416   326 212.2 21.21  63.1  3810 .0433   319   210  1.20  0.98  43.0  59.7  0.78  0.44  0.22  0.40  0.00  0.00  0.00   2.0  0.00  0.01  0.00  0.00
 2023 104   225   132  20.2  -6.0 90.49  8.63  0.14  1.93  38.4  0.23 0.221  0.45  4617    15   343  4259   111  1614  1676  0.39   518  1846  1436   339 212.2 21.56  64.0  3810 .0440   317   210  1.20  0.98  42.4  56.1  0.71  0.58  0.29  0.45  0.00  0.00  0.00   2.0  0.00  0.01  0.00  0.00
