$GROWTH ASPECTS OUTPUT FILE

*DSSAT Cropping System Model Ver. 4.8.2.000 -release  JUN 26, 2025 10:31:25

*RUN   1        : WW23_G-1                  CSCER048 CIOB2301    1
 MODEL          : CSCER048 - Wheat
 EXPERIMENT     : CIOB2301 WH ROOTS ANATOMY
 DATA PATH      : C:\DSSAT48\Wheat\
 TREATMENT  1   : WW23_G-1                  CSCER048
  
@YEAR DOY   DAS   DAP TMEAN TKILL  GSTD  L#SD PARID PARUD  AWAD  LAID  SAID  CAID  TWAD SDWAD  RWAD  CWAD  LWAD  SWAD  HWAD  HIAD CHWAD  EWAD RSWAD SNWPD SNWLD SNWSD  RS%D  H#AD  HWUD  T#AD  SLAD  RDPD  PTFD  SWXD WAVRD WUPRD  WFTD  WFPD  WFGD  NFTD  NFPD  NFGD NUPRD  TFPD  TFGD VRNFD DYLFD
 2022 327    83     0  17.6  -6.0  0.00  0.00  0.00  0.00   0.0  0.00 0.000  0.00    43    43     0     0     0     0     0  0.00     0     0     0     0     0     0   0.0     0     0   150   -99  0.04  0.00  19.7  99.9  1.00  0.00  0.00  0.00  0.00  0.00  0.00   0.0  0.00  0.00  0.57  0.00
 2022 328    84     1  16.4  -6.0  5.84  0.00  0.00  0.00   0.0  0.00 0.000  0.00    43    43     0     0     0     0     0  0.00     0     0     0     0     0     0   0.0     0     0   150   -99  0.04  0.00   7.2  99.9  1.00  0.00  0.00  0.00  0.00  0.00  0.00   0.0  0.00  0.00  0.57  0.00
 2022 329    85     2  17.4  -6.0  8.40  0.00  0.00  0.00   0.0  0.00 0.000  0.00    43    41     1     0     0     0     0  0.00     0     0     0     0     0     0   0.0     0     0   150   -99  0.07  0.00   4.4  99.9  1.00  0.00  0.00  0.00  0.00  0.00  0.00   0.0  0.00  0.00  0.57  0.00
 2022 330    86     3  18.0  -6.0 10.00  0.00  0.00  0.00   0.0  0.00 0.000  0.00    43    40     3     0     0     0     0  0.00     0     0     0     0     0 .0012   0.0     0     0   150   -99  0.09  0.00   3.7  99.9  1.00  0.00  0.00  0.00  0.00  0.00  0.00   2.0  0.00  0.00  0.57  0.00
 2022 331    87     4  16.3  -6.0 10.22  0.22  0.02  0.00   0.0  0.03 0.003  0.03    43    26     4    13     9     4     0  0.00     0     0     0     0     0 .0034   0.0     0     0   150   350  0.12  0.75   3.8  99.9  1.00  0.00  0.00  0.00  0.00  0.00  0.00   0.1  0.00  0.00  0.57  0.26
 2022 332    88     5  16.1  -6.0 10.44  0.44  0.03  0.49   1.0  0.04 0.004  0.04    43    22     5    16    10     6     0  0.00     0     0     1     0 0.128 .0065   4.8     0     0   150   347  0.14  0.68   4.1  56.5  0.27  1.00  0.73  0.79  0.00  0.00  0.00   0.2  0.00  0.00  0.57  0.26
 2022 333    89     6  18.1  -6.0 10.68  0.68  0.04  0.43   1.0  0.04 0.004  0.05    44    17     6    20    13     8     0  0.00     0     0     2     0 0.283 .0112   8.0     0     0   150   347  0.17  0.69   5.6  61.6  0.29  1.00  0.71  0.78  0.18  0.18  0.18   0.2  0.00  0.00  0.57  0.26
 2022 334    90     7  18.5  -6.0 10.93  0.93  0.04  0.45   1.2  0.05 0.005  0.06    45    12     8    25    15    10     0  0.00     0     0     2     0 0.469 .0171   8.5     0     0   150   347  0.19  0.69   7.1  66.3  0.36  1.00  0.64  0.72  0.30  0.30  0.30   0.3  0.00  0.00  0.57  0.26
 2022 335    91     8  19.2  -6.0 11.19  1.19  0.05  0.41   1.4  0.06 0.006  0.06    46     9     9    27    17    10     0  0.00     0     0     2     0 0.697 .0247   7.9     0     0   150   346  0.22  0.70   8.8  65.0  0.38  1.00  0.62  0.71  0.39  0.39  0.39   0.6  0.00  0.00  0.57  0.26
 2022 336    92     9  23.0  -6.0 11.50  1.50  0.05  0.44   1.6  0.06 0.006  0.07    47     9     9    29    18    11     0  0.00     0     0     2     0 0.947 .0351   7.7     0     0   150   345  0.26  0.70  10.7  70.6  0.40  1.00  0.60  0.69  0.38  0.38  0.38   1.2  0.00  0.20  0.57  0.26
 2022 337    93    10  23.0  -6.0 11.80  1.80  0.05  0.50   1.7  0.06 0.006  0.07    48     9    10    30    19    11     0  0.00     0     0     2     0 1.211 .0460   7.6     0     0   150   345  0.29  0.70  12.7  87.9  0.42  1.00  0.58  0.68  0.34  0.34  0.34   1.5  0.00  0.20  0.57  0.26
 2022 338    94    11  22.0  -6.0 12.05  2.05  0.05  0.54   1.8  0.07 0.007  0.07    50     9    10    31    19    12     0  0.00     0     0     2     0 1.484 .0568   7.5     0     0   150   344  0.32  0.70  14.6  99.9  0.43  1.00  0.57  0.67  0.30  0.30  0.30   1.7  0.00  0.13  0.57  0.26
 2022 339    95    12  22.2  -6.0 12.20  2.20  0.06  1.30   1.9  0.07 0.007  0.08    51     9    10    32    20    12     0  0.00     0     0     2     0 1.484 .0681   6.5     0     0   150   343  0.36  0.73  16.7  99.9  1.04  0.00  0.00  0.20  0.27  0.27  0.27   1.7  0.00  0.15  0.57  0.26
 2022 340    96    13  19.7  -6.0 12.33  2.33  0.06  1.35   1.5  0.07 0.007  0.08    53     9    11    33    21    12     0  0.00     0     0     2     0 1.484 .0784   5.7     0     0   150   342  0.38  0.74  19.9  99.9  1.46  0.00  0.00  0.00  0.24  0.24  0.24   1.8  0.00  0.00  0.57  0.26
 2022 341    97    14  20.0  -6.0 12.47  2.47  0.06  1.27   2.4  0.08 0.008  0.08    55     9    11    35    23    13     0  0.00     0     0     2     0 1.484 .0890   4.9     0     0   182   341  0.39  0.74  20.4  99.9  0.91  0.19  0.09  0.30  0.21  0.21  0.21   1.6  0.00  0.00  0.57  0.26
 2022 342    98    15  20.8  -6.0 12.61  2.61  0.06  0.58   2.5  0.08 0.008  0.09    57     9    11    37    23    13     0  0.00     0     0     2     0 1.815 0.100   5.2     0     0   182   340  0.41  0.70  21.1  99.9  0.40  1.00  0.60  0.69  0.19  0.19  0.19   1.5  0.00  0.05  0.57  0.26
 2022 343    99    16  18.0  -6.0 12.73  2.73  0.07  0.56   2.7  0.08 0.008  0.09    59     9    12    38    24    14     0  0.00     0     0     2     0 2.157 0.111   5.5     0     0   182   339  0.43  0.70  22.1  99.9  0.38  1.00  0.62  0.71  0.17  0.17  0.17   1.8  0.00  0.00  0.57  0.26
 2022 344   100    17  17.0  -6.0 12.84  2.84  0.07  0.57   3.0  0.09 0.009  0.09    61     9    12    40    25    15     0  0.00     0     0     2     0 2.512 0.121   5.7     0     0   182   338  0.45  0.70  23.2  99.9  0.37  1.00  0.63  0.71  0.15  0.15  0.15   1.8  0.00  0.00  0.57  0.26
 2022 345   101    18  16.2  -6.0 12.95  2.95  0.07  0.62   3.3  0.09 0.009  0.10    63     9    13    42    27    15     0  0.00     0     0     2     0 2.883 0.131   5.8     0     0   182   337  0.46  0.71  24.1  99.9  0.40  1.00  0.60  0.69  0.13  0.13  0.13   1.8  0.00  0.00  0.57  0.26
 2022 346   102    19  16.1  -6.0 13.06  3.06  0.07  0.65   3.6  0.09 0.010  0.10    66     9    14    44    28    16     0  0.00     0     0     3     0 3.270 0.142   6.0     0     0   182   336  0.48  0.71  25.0  99.9  0.41  1.00  0.59  0.68  0.11  0.11  0.11   1.7  0.00  0.00  0.57  0.26
 2022 347   103    20  15.1  -6.0 13.16  3.16  0.08  0.74   4.1  0.10 0.010  0.11    69     9    14    47    29    17     0  0.00     0     0     3     0 3.677 0.152   6.0     0     0   182   335  0.49  0.71  72.6  99.9  0.46  1.00  0.54  0.65  0.10  0.10  0.10   1.5  0.00  0.00  0.57  0.26
 2022 348   104    21  15.2  -6.0 13.26  3.26  0.09  1.63  10.2  0.12 0.012  0.13    79     9    16    54    35    20     0  0.00     0     0     3     0 3.677 0.163   4.9     0     0   210   333  0.51  0.76  55.6  99.9  1.77  0.00  0.00  0.00  0.08  0.08  0.08   1.6  0.00  0.00  0.57  0.27
 2022 349   105    22  14.6  -6.0 13.36  3.36  0.11  1.66  11.8  0.13 0.014  0.15    89     9    17    63    41    23     0  0.00     0     0     3     0 3.677 0.174   4.0     0     0   237   331  0.52  0.76  40.3  99.9  1.80  0.00  0.00  0.00  0.06  0.06  0.06   1.4  0.00  0.00  0.55  0.27
 2022 350   106    23  12.5  -6.0 13.44  3.44  0.12  1.69   7.7  0.15 0.015  0.16    96     9    19    69    45    24     0  0.00     0     0     2     0 3.677 0.185   3.5     0     0   261   329  0.53  0.76  34.1  99.9  2.05  0.00  0.00  0.00  0.05  0.05  0.05   1.4  0.00  0.00  0.47  0.27
 2022 351   107    24  14.9  -6.0 13.55  3.55  0.13  1.70  14.4  0.17 0.018  0.19   109     9    21    80    52    28     0  0.00     0     0     2     0 3.677 0.199   2.9     0     0   290   328  0.55  0.77  32.1  99.9  1.09  0.00  0.00  0.16  0.04  0.04  0.04   0.7  0.00  0.00  0.46  0.27
 2022 352   108    25  15.5  -6.0 21.12  3.65  0.15  1.56  15.3  0.20 0.021  0.22   123     9    23    92    60    32     0  0.00     0     0     2     0 3.677 0.215   2.5     0     0   318   327  0.56  0.76  32.4  91.8  0.96  0.09  0.04  0.26  0.08  0.08  0.08   0.7  0.00  0.00  0.46  0.27
 2022 353   109    26  14.8  -6.0 21.25  3.75  0.17  1.32  14.8  0.22 0.023  0.24   136     9    25   103    67    36     0  0.00     0     0     2     0 3.677 0.232   2.2     0     0   338   326  0.58  0.75  32.9  82.2  0.83  0.34  0.17  0.36  0.11  0.11  0.11   0.9  0.00  0.00  0.45  0.27
 2022 354   110    27  16.6  -6.0 21.40  3.86  0.18  1.33  15.1  0.24 0.026  0.27   150     9    27   114    75    40     0  0.00     0     0     2     0 3.677 0.253   2.0     0     0   360   325  0.59  0.76  33.6  80.1  0.84  0.33  0.16  0.36  0.11  0.11  0.11   0.9  0.00  0.00  0.45  0.27
 2022 355   111    28  15.2  -6.0 21.50  3.96  0.20  1.18  16.5  0.27 0.029  0.30   165     9    30   127    83    44     0  0.00     0     0     2     0 3.677 0.273   1.8     0     0   375   325  0.61  0.75  34.1  67.8  0.73  0.53  0.27  0.44  0.10  0.10  0.10   0.9  0.00  0.00  0.45  0.27
 2022 356   112    29  15.3  -6.0 21.58  4.07  0.22  1.14  17.7  0.30 0.032  0.33   181     9    32   140    91    49     0  0.00     0     0     2     0 3.677 0.296   1.7     0     0   387   325  0.62  0.74  34.6  61.9  0.70  0.59  0.30  0.46  0.09  0.09  0.09   1.0  0.00  0.00  0.45  0.27
 2022 357   113    30  15.9  -6.0 21.66  4.17  0.23  1.13  18.9  0.32 0.034  0.35   196     9    35   153    99    53     0  0.00     0     0     4     0 5.044 0.322   2.5     0     0   399   322  0.63  0.74  35.2  57.4  0.69  0.62  0.31  0.47  0.07  0.07  0.07   1.0  0.00  0.00  0.45  0.27
 2022 358   114    31  16.2  -6.0 21.74  4.28  0.25  1.14  20.4  0.34 0.037  0.38   213     9    38   166   107    59     0  0.00     0     0     5     0 6.441 0.350   3.1     0     0   411   320  0.65  0.74  35.6  54.0  0.68  0.64  0.32  0.48  0.06  0.06  0.06   1.2  0.00  0.00  0.45  0.27
 2022 359   115    32  17.8  -6.0 21.81  4.40  0.26  1.08  20.8  0.37 0.040  0.41   230     9    41   180   115    65     0  0.00     0     0     7     0 7.972 0.384   3.6     0     0   421   319  0.66  0.74  36.1  49.2  0.64  0.72  0.36  0.51  0.05  0.05  0.05   1.2  0.00  0.00  0.53  0.27
 2022 360   116    33  17.0  -6.0 21.87  4.52  0.28  1.07  22.2  0.40 0.043  0.44   248     9    45   195   124    71     0  0.00     0     0     8     0 9.442 0.419   4.0     0     0   430   318  0.68  0.74  36.6  47.1  0.63  0.75  0.37  0.52  0.04  0.04  0.04   1.3  0.00  0.00  0.53  0.27
 2022 361   117    34  17.5  -6.0 21.92  4.63  0.30  1.05  22.8  0.42 0.047  0.47   267     9    48   210   134    77     0  0.00     0     0     9     0 10.96 0.459   4.2     0     0   438   317  0.69  0.74  37.1  44.9  0.61  0.78  0.39  0.53  0.03  0.03  0.03   1.3  0.00  0.00  0.57  0.27
 2022 362   118    35  16.6  -6.0 22.13  4.75  0.32  1.71  24.6  0.46 0.051  0.51   288     9    52   228   145    83     0  0.00     0     0    10     0 12.40 0.499   4.4     0     0   470   316  0.70  0.78  37.5  71.3  0.98  0.03  0.02  0.24  0.02  0.02  0.02   1.2  0.00  0.00  0.57  0.27
 2022 363   119    36  17.2  -6.0 22.36  4.86  0.33  1.75  11.6  0.48 0.053  0.53   299     9    53   237   151    86     0  0.00     0     0     9     0 12.67 0.544   4.0     0     0   504   316  0.72  0.78  38.5  99.9  2.19  0.00  0.00  0.00  0.02  0.02  0.02   2.0  0.00  0.00  0.57  0.27
 2022 364   120    37  18.6  -6.0 22.40  4.99  0.34  1.01  24.1  0.50 0.056  0.56   318     9    57   252   160    92     0  0.00     0     0    11     0 14.83 0.593   4.4     0     0   510   315  0.73  0.74  39.0  42.7  0.58  0.85  0.42  0.56  0.01  0.01  0.01   1.3  0.00  0.00  0.57  0.27
 2022 365   121    38  17.8  -6.0 22.42  5.11  0.36  0.95  24.9  0.53 0.059  0.59   338     9    61   268   169    99     0  0.00     0     0    13     0 17.13 0.644   4.8     0     0   513   314  0.75  0.73  39.5  39.8  0.54  0.92  0.46  0.58  0.01  0.01  0.01   1.6  0.00  0.00  0.57  0.27
 2023   1   122    39  16.6  -6.0 22.47  5.22  0.38  1.11  26.6  0.57 0.064  0.64   362     9    65   288   183   105     0  0.00     0     0    12     0 17.13 0.695   4.2     0     0   521   313  0.76  0.74  39.9  45.9  0.63  0.74  0.37  0.52  0.00  0.00  0.00   1.5  0.00  0.00  0.57  0.26
 2023   2   123    40  15.1  -6.0 22.58  5.32  0.40  1.35  28.1  0.62 0.069  0.68   387     9    69   309   197   112     0  0.00     0     0    11     0 17.13 0.744   3.7     0     0   537   312  0.77  0.76  40.3  54.9  0.76  0.48  0.24  0.42  0.00  0.00  0.00   1.2  0.00  0.00  0.57  0.26
 2023   3   124    41  13.8  -6.0 22.60  5.41  0.42  0.96  29.0  0.65 0.073  0.72   410     9    74   328   208   120     0  0.00     0     0    14     0 19.95 0.791   4.2     0     0   540   311  0.78  0.74  81.2  77.5  0.54  0.92  0.46  0.58  0.00  0.00  0.00   1.2  0.00  0.00  0.52  0.26
 2023   4   125    42  16.3  -6.0 22.93  5.52  0.46  1.78  57.6  0.73 0.083  0.82   462     9    81   373   238   135     0  0.00     0     0    14     0 19.95 0.851   3.7     0     0   590   309  0.80  0.78  64.3  51.1  1.72  0.00  0.00  0.00  0.00  0.00  0.00   1.5  0.00  0.00  0.52  0.26
 2023   5   126    43  17.6  -6.0 23.28  5.64  0.50  1.78  65.4  0.84 0.095  0.93   522     9    89   424   271   153     0  0.00     0     0    14     0 19.95 0.923   3.3     0     0   643   308  0.81  0.78  55.1  38.3  1.66  0.00  0.00  0.00  0.00  0.00  0.00   1.3  0.00  0.00  0.55  0.26
 2023   6   127    44  18.3  -6.0 23.65  5.76  0.54  1.78  70.2  0.94 0.108  1.05   586     9    98   479   307   172     0  0.00     0     0    14     0 19.95 1.004   3.0     0     0   698   307  0.83  0.78  51.3  33.5  1.32  0.00  0.00  0.00  0.00  0.00  0.00   1.1  0.00  0.00  0.55  0.26
 2023   7   128    45  17.7  -6.0 24.01  5.88  0.58  1.78  73.8  1.05 0.121  1.18   654     9   108   537   343   194     0  0.00     0     0    15     0 19.95 1.091   2.7     0     0   751   307  0.84  0.79  50.3  31.8  1.23  0.00  0.00  0.05  0.00  0.00  0.00   1.0  0.00  0.00  0.55  0.26
 2023   8   129    46  17.3  -6.0 24.36  6.00  0.62  1.78  79.3  1.18 0.136  1.31   726     9   118   600   382   218     0  0.00     0     0    15     0 19.95 1.185   2.5     0     0   804   308  0.86  0.79  49.6  29.4  1.11  0.00  0.00  0.15  0.00  0.00  0.00   0.9  0.00  0.00  0.55  0.26
 2023   9   130    47  16.6  -6.0 24.64  6.11  0.66  1.63  81.1  1.30 0.150  1.45   800     9   129   663   421   241     0  0.00     0     0    16     0 19.95 1.283   2.4     0     0   846   308  0.87  0.78  48.8  26.1  0.92  0.16  0.08  0.29  0.01  0.01  0.01   0.9  0.00  0.00  0.55  0.26
 2023  10   131    48  17.2  -6.0 24.87  6.23  0.69  1.46  74.6  1.40 0.163  1.56   867     9   139   719   457   263     0  0.00     0     0    17     0 20.84 1.393   2.4     0     0   880   307  0.88  0.77  48.1  24.8  0.83  0.34  0.17  0.36  0.01  0.01  0.01   1.0  0.00  0.00  0.55  0.26
 2023  11   132    49  17.9  -6.0 25.02  6.35  0.71  1.26  70.5  1.50 0.175  1.67   929     9   149   772   489   283     0  0.00     0     0    18     0 21.77 1.518   2.3     0     0   903   306  0.90  0.76  47.6  22.0  0.71  0.58  0.29  0.45  0.01  0.01  0.01   1.1  0.00  0.00  0.57  0.26
 2023  12   133    50  18.4  -6.0 25.14  6.47  0.73  1.18  69.0  1.59 0.187  1.78   990     9   159   823   521   302     0  0.00     0     0    19     0 22.73 1.655   2.3     0     0   922   306  0.91  0.76  47.0  20.9  0.67  0.67  0.33  0.49  0.00  0.00  0.00   1.2  0.00  0.00  0.57  0.26
 2023  13   134    51  16.6  -6.0 25.25  6.58  0.75  1.17  69.8  1.69 0.199  1.89  1052     9   169   875   553   322     0  0.00     0     0    20     0 23.60 1.787   2.3     0     0   938   306  0.93  0.76  46.4  20.6  0.66  0.68  0.34  0.49  0.00  0.00  0.00   1.2  0.00  0.00  0.57  0.26
 2023  14   135    52  17.6  -6.0 25.33  6.70  0.77  1.08  65.4  1.78 0.210  1.99  1111     9   179   924   583   341     0  0.00     0     0    20     0 23.79 1.936   2.1     0     0   949   306  0.94  0.75  46.0  19.7  0.61  0.78  0.39  0.53  0.00  0.00  0.00   1.3  0.00  0.00  0.57  0.26
 2023  15   136    53  16.9  -6.0 25.56  6.81  0.79  1.50  63.9  1.88 0.222  2.10  1169     9   187   973   613   360     0  0.00     0     0    20     0 23.79 2.086   2.0     0     0   985   306  0.95  0.78  45.7  28.9  0.85  0.31  0.15  0.35  0.00  0.00  0.00   1.3  0.00  0.00  0.57  0.26
 2023  16   137    54  17.0  -6.0 25.58  6.93  0.80  0.94  59.5  1.92 0.228  2.15  1213     9   196  1009   637   371     0  0.00     0     0    28     0 32.65 2.245   2.8     0     0   988   302  0.97  0.74  45.5  19.3  0.53  0.94  0.47  0.59  0.00  0.00  0.00   1.4  0.00  0.00  0.57  0.26
 2023  17   138    55  14.1  -6.0 25.87  7.02  0.81  1.78  34.0  1.98 0.235  2.21  1244     9   200  1036   653   382     0  0.00     0     0    26     0 32.65 2.383   2.5     0     0  1030   303  0.98  0.79  46.0  68.8  1.76  0.00  0.00  0.00  0.00  0.00  0.00   2.0  0.00  0.00  0.53  0.26
 2023  18   139    56  13.8  -6.0 25.88  7.11  0.81  0.93  57.8  2.00 0.239  2.24  1283     9   209  1065   674   391     0  0.00     0     0    39     0 46.15 2.521   3.7     0     0  1032   297  0.99  0.75  45.6  20.8  0.52  0.95  0.48  0.60  0.00  0.00  0.00   1.4  0.00  0.00  0.49  0.26
 2023  19   140    57  14.2  -6.0 25.88  7.21  0.81  0.87  53.9  2.02 0.242  2.26  1317     9   217  1091   682   409     0  0.00     0     0    50     0 59.92 2.670   4.6     0     0  1032   296  1.00  0.74  45.4  20.4  0.49  1.00  0.51  0.62  0.00  0.00  0.00   2.0  0.00  0.00  0.47  0.25
 2023  20   141    58  13.8  -6.0 25.88  7.30  0.82  0.74  51.6  2.04 0.245  2.29  1349     9   225  1116   690   425     0  0.00     0     0    61     0 73.66 2.819   5.4     0     0  1032   296  1.01  0.74  99.6  40.1  0.42  1.00  0.58  0.68  0.00  0.00  0.00   2.0  0.00  0.00  0.42  0.25
 2023  21   142    59  14.1  -6.0 26.16  7.40  0.84  1.78 124.7  2.23 0.269  2.49  1463     9   240  1215   756   458     0  0.00     0     0    58     0 73.66 2.977   4.8     0     0  1075   294  1.02  0.79  82.7  32.8  2.62  0.00  0.00  0.00  0.00  0.00  0.00   2.0  0.00  0.00  0.39  0.25
 2023  22   143    60  14.1  -6.0 26.45  7.49  0.87  1.78 131.7  2.42 0.294  2.71  1584     9   256  1320   826   494     0  0.00     0     0    57     0 73.66 3.146   4.3     0     0  1117   293  1.04  0.80  72.9  27.3  2.64  0.00  0.00  0.00  0.00  0.00  0.00   1.4  0.00  0.00  0.36  0.25
 2023  23   144    61  12.6  -6.0 26.70  7.58  0.88  1.78 114.6  2.59 0.315  2.90  1689     9   270  1411   887   524     0  0.00     0     0    55     0 73.66 3.307   3.9     0     0  1155   292  1.05  0.80  69.7  31.3  3.05  0.00  0.00  0.00  0.00  0.00  0.00   1.7  0.00  0.00  0.27  0.25
 2023  24   145    62  13.1  -6.0 26.96  7.66  0.90  1.78 138.9  2.79 0.341  3.13  1817     9   287  1522   954   567     0  0.00     0     0    54     0 73.66 3.484   3.6     0     0  1194   293  1.06  0.80  67.2  24.6  2.38  0.00  0.00  0.00  0.00  0.00  0.00   1.4  0.00  0.00  0.20  0.25
 2023  25   146    63  14.5  -6.0 26.96  7.76  0.92  1.78 142.6  3.00 0.368  3.37  1948     9   304  1635  1023   613     0  0.00     0     0    54     0 73.66 3.692   3.3     0     0  1194   293  1.07  0.80  64.7  22.1  2.01  0.00  0.00  0.00  0.00  0.00  0.00   1.4  0.00  0.00  0.18  0.25
 2023  26   147    64  15.7  -6.0 26.96  7.87  0.93  1.78 133.6  3.19 0.393  3.59  2070     9   320  1742  1087   655     0  0.00     0     0    53     0 73.66 3.930   3.0     0     0  1194   294  1.08  0.80  62.5  22.3  1.92  0.00  0.00  0.00  0.00  0.00  0.00   1.5  0.00  0.00  0.18  0.25
 2023  27   148    65  12.1  -6.0 26.96  7.95  0.94  1.78 108.2  3.35 0.413  3.77  2170     9   333  1829  1138   691     0  0.00     0     0    52     0 73.66 4.124   2.8     0     0  1194   295  1.09  0.80  60.9  28.6  2.16  0.00  0.00  0.00  0.00  0.00  0.00   1.8  0.00  0.00  0.00  0.00
 2023  28   149    66  15.6  -6.0 26.96  8.05  0.95  1.78 121.7  3.53 0.436  3.96  2281     9   347  1926  1196   730     0  0.00     0     0    51     0 73.66 4.383   2.7     0     0  1194   295  1.10  0.80  59.1  22.8  1.56  0.00  0.00  0.00  0.00  0.00  0.00   1.7  0.00  0.00  0.00  0.00
 2023  29   150    67  14.4  -6.0 26.96  8.15  0.95  1.78 148.8  3.71 0.462  4.18  2414     9   364  2042  1265   777     0  0.00     0     0    57     0 77.65 4.634   2.8     0     0  1194   294  1.12  0.80  56.7  18.3  1.13  0.00  0.00  0.13  0.00  0.00  0.00   1.5  0.00  0.00  0.00  0.00
 2023  30   151    68  14.6  -6.0 26.96  8.25  0.96  1.78 133.9  3.88 0.485  4.36  2534     9   379  2146  1326   820     0  0.00     0     0    62     0 81.68 4.898   2.9     0     0  1194   292  1.13  0.81  54.6  19.4  1.06  0.00  0.00  0.19  0.00  0.00  0.00   1.8  0.00  0.00  0.00  0.00
 2023  31   152    69  14.5  -6.0 30.03  8.35  0.96  1.58 122.8  4.02 0.506  4.53  2642     9   394  2240  1380   860     0  0.00     0     0    66     0 85.71 5.173   3.0     0     0  1194   292  1.14  0.80  52.8  18.2  0.89  0.22  0.11  0.32  0.00  0.00  0.00   2.0  0.00  0.00  0.00  0.00
 2023  32   153    70  13.4  -6.0 30.66  8.44  0.97  1.78 103.7  4.15 0.524  4.67  2734     9   405  2321  1426   895     0  0.00     0     0    69     0 89.42 5.436   3.0     0     0  1194   291  1.15  0.81  51.5  24.6  1.08  0.00  0.00  0.17  0.00  0.00  0.00   2.0  0.00  0.00  0.00  0.00
 2023  33   154    71  15.9  -6.0 31.42  8.54  0.97  1.18  94.7  4.25 0.540  4.79  2816     9   417  2390  1464   926     0  0.00     0     0    73     0 93.83 5.757   3.0     0     0  1194   290  1.16  0.78  50.4  16.4  0.66  0.67  0.34  0.49  0.00  0.00  0.00   2.0  0.00  0.00  0.00  0.00
 2023  34   155    72  16.9  -6.0 32.22  8.66  0.97  1.04  83.0  4.25 0.544  4.80  2866     9   428  2429  1490   939     0  0.00     0     0    96     0 119.3 6.108   4.0     0     0  1194   285  1.18  0.78  96.0  30.2  0.58  0.83  0.42  0.55  0.00  0.00  0.00   2.0  0.00  0.00  0.00  0.00
 2023  35   156    73  16.9  -6.0 33.02  8.77  0.97  1.78 147.5  4.42 0.570  4.99  2998     9   443  2546  1553   993     0  0.00     0     0   102     0 124.0 6.470   4.0     0     0  1194   285  1.19  0.82  87.4  26.4  3.28  0.00  0.00  0.00  0.00  0.00  0.00   2.0  0.00  0.00  0.00  0.00
 2023  36   157    74  18.1  -6.0 33.89  8.89  0.98  1.78 148.0  4.58 0.596  5.18  3130     9   459  2662  1615  1048     0  0.00     0     0   109     0 129.1 6.872   4.1     0     0  1194   284  1.20  0.82  82.4  24.3  3.84  0.00  0.00  0.00  0.00  0.00  0.00   2.0  0.00  0.00  0.00  0.00
 2023  37   158    75  16.7  -6.0 34.68  9.00  0.98  1.78 142.4  4.74 0.621  5.36  3257     9   473  2776  1674  1102     0  0.00     0     0   115     0 133.8 7.255   4.1     0     0  1194   283  1.22  0.83  80.1  25.4  4.15  0.00  0.00  0.00  0.00  0.00  0.00   2.0  0.00  0.00  0.00  0.00
 2023  38   159    76  16.2  -6.0 35.45  9.11  0.98  1.78 155.0  4.90 0.649  5.55  3397     9   488  2900  1737  1163     0  0.00     0     0   122     0 138.3 7.639   4.2     0     0  1194   282  1.22  0.83  76.6  22.7  3.63  0.00  0.00  0.00  0.00  0.00  0.00   2.0  0.00  0.00  0.00  0.00
 2023  39   160    77  18.1  -6.0 36.32  9.23  0.99  1.78 159.8  5.06 0.677  5.73  3540     9   504  3028  1801  1226     0  0.00     0     0   130     0 143.4 8.082   4.3     0     0  1194   281  1.22  0.83  72.8  19.9  2.90  0.00  0.00  0.00  0.00  0.00  0.00   2.0  0.00  0.00  0.00  0.00
 2023  40   161    78  15.1  -6.0 37.04  9.34  0.99  1.78 161.9  5.22 0.706  5.92  3687     9   520  3159  1866  1293     0  0.00     0     0   138     0 147.6 8.462   4.4     0     0  1194   280  1.22  0.84  69.1  19.7  2.38  0.00  0.00  0.00  0.00  0.00  0.00   2.0  0.00  0.00  0.00  0.00
 2023  41   162    79  17.1  -6.0 37.85  9.45  0.99  1.78 142.9  5.36 0.732  6.09  3815     9   533  3274  1921  1353     0  0.00     0     0   145     0 152.5 8.908   4.4     0     0  1194   279  1.22  0.84  65.8  20.3  2.08  0.00  0.00  0.00  0.00  0.00  0.00   2.0  0.00  0.00  0.00  0.00
 2023  42   163    80  14.0  -6.0 38.52  9.54  0.99  1.78  51.8  5.39 0.742  6.13  3859     9   537  3313  1937  1377     0  0.00     0     0   140     0 156.4 9.281   4.2     0     0  1168   278  1.22  0.84  64.7  59.9  5.12  0.00  0.00  0.00  0.00  0.00  0.00   2.0  0.00  0.00  0.00  0.00
 2023  43   164    81  15.7  -6.0 39.27  9.65  0.99  1.78 145.8  5.50 0.769  6.27  3991     9   551  3432  1991  1441     0  0.00     0     0   148     0 160.9 9.703   4.3     0     0  1139   276  1.22  0.84  61.4  19.4  1.64  0.00  0.00  0.00  0.00  0.00  0.00   2.0  0.00  0.00  0.00  0.00
 2023  44   165    82  13.9  -6.0 39.93  9.74  0.99  1.78  98.4  5.57 0.787  6.36  4079     9   559  3512  2026  1486     0  0.00     0     0   149     0 164.9 10.09   4.3     0     0  1115   275  1.22  0.85  59.4  29.2  2.12  0.00  0.00  0.00  0.00  0.00  0.00   2.0  0.00  0.00  0.00  0.00
 2023  45   166    83  13.7  -6.0 40.61  9.84  0.99  1.78 146.9  5.68 0.814  6.49  4213     9   572  3632  2080  1553     0  0.00     0     0   157     0 168.8 10.47   4.3     0     0  1091   273  1.22  0.85  56.2  18.3  1.25  0.00  0.00  0.04  0.00  0.00  0.00   2.0  0.00  0.00  0.00  0.00
 2023  46   167    84  14.2  -6.0 41.32  9.84  0.99  2.87 244.8  5.61 0.846  6.46  4443     9   593  3841  2139  1692     0  0.00     0     0   230    10 168.8 10.87   6.0     0     0  1068   262  1.22  0.85  56.8  17.9  1.02  0.00  0.00  0.22  0.00  0.00  0.00   2.0  0.00  0.00  0.00  0.00
 2023  47   168    85  14.1  -6.0 42.03  9.84  0.99  2.87 270.3  5.55 0.882  6.43  4698     9   616  4073  2130  1922     0  0.00     0     0   310    20 168.8 11.29   7.6     0     0  1045   260  1.22  0.86  53.2  15.2  1.28  0.00  0.00  0.02  0.00  0.00  0.00   2.0  0.00  0.00  0.00  0.00
 2023  48   169    86  12.8  -6.0 42.67  9.84  0.99  2.87 194.8  5.49 0.907  6.40  4881     9   632  4240  2121  2090     0  0.00     0     0   369    30 168.8 11.69   8.8     0     0  1025   259  1.22  0.86  97.4  39.3  1.30  0.00  0.00  0.00  0.00  0.00  0.00   2.0  0.00  0.00  0.00  0.00
 2023  49   170    87  17.4  -6.0 43.54  9.84  0.99  2.87 173.4  5.41 0.927  6.34  5045     9   646  4390  2106  2242     0  0.00     0     0   427    42 168.8 12.24   9.8     0     0   998   257  1.21  0.86 103.8  43.4  6.58  0.00  0.00  0.00  0.00  0.00  0.00   2.0  0.00  0.00  0.00  0.00
 2023  50   171    88  18.8  -6.0 44.48  9.84  0.99  2.87 152.0  5.33 0.944  6.27  5188     9   657  4522  2091  2375     0  0.00     0     0   480    56 168.8 12.84  10.8     0     0   971   255  1.21  0.87  90.4  41.9  8.58  0.00  0.00  0.00  0.00  0.00  0.00   2.0  0.00  0.00  0.00  0.00
 2023  51   172    89  18.3  -6.0 45.39  9.84  0.99  2.87 187.3  5.25 0.966  6.21  5365     9   671  4685  2077  2540     0  0.00     0     0   543    69 168.8 13.45  11.8     0     0   945   253  1.21  0.87  84.2  31.9  7.31  0.00  0.00  0.00  0.00  0.00  0.00   2.0  0.00  0.00  0.00  0.00
 2023  52   173    90  16.3  -6.0 46.21  9.84  0.99  2.87 173.0  5.18 0.987  6.16  5529     9   683  4837  2064  2692     0  0.00     0     0   600    81 168.8 13.99  12.6     0     0   923   251  1.21  0.88  82.3  35.6  8.53  0.00  0.00  0.00  0.00  0.00  0.00   2.0  0.00  0.00  0.00  0.00
 2023  53   174    91  15.3  -6.0 46.97  9.84  0.99  2.87 284.8  5.11 1.026  6.14  5800     9   703  5088  2052  2943     0  0.00     0     0   687    93 168.8 14.52  13.8     0     0   902   249  1.21  0.88  78.4  21.0  5.38  0.00  0.00  0.00  0.00  0.00  0.00   2.0  0.00  0.00  0.00  0.00
 2023  54   175    92  16.1  -6.0 47.78  9.84  0.98  2.87 286.0  5.04 1.065  6.11  6072     9   722  5341  2038  3198     0  0.00     0     0   775   105 168.8 15.09  14.8     0     0   882   247  1.21  0.88  74.5  19.2  4.85  0.00  0.00  0.00  0.00  0.00  0.00   2.0  0.00  0.00  0.00  0.00
 2023  55   176    93  13.1  -6.0 48.44  9.84  0.98  2.87 183.9  4.99 1.089  6.08  6247     9   734  5505  2028  3362     0  0.00     0     0   834   115 168.8 15.56  15.5     0     0   866   246  1.21  0.89  72.0  30.9  6.47  0.00  0.00  0.00  0.00  0.00  0.00   2.0  0.00  0.00  0.00  0.00
 2023  56   177    94  15.6  -6.0 49.22  9.84  0.98  2.87 180.9  4.92 1.112  6.03  6420     9   745  5666  2014  3452     0  0.00    73    73   894   126 168.8 16.13  16.1     0     0   847   244  1.21  0.89  69.5  28.7  5.44  0.00  0.00  0.00  0.00  0.00  0.00   2.0  0.00  0.00  0.00  0.00
 2023  57   178    95  17.0  -6.0 50.23  9.84  0.98  2.87 293.8  4.85 1.152  6.00  6701     9   763  5929  1999  3578     0  0.00   213   193   986   139 168.8 16.77  17.0     0     0   828   243  1.21  0.90  65.4  16.3  2.81  0.00  0.00  0.00  0.00  0.00  0.00   2.0  0.00  0.00  0.00  0.00
 2023  58   179    96  16.0  -6.0 52.90  9.84  0.98  2.87 293.5  4.80 1.189  5.99  6982     9   780  6194  1992  3687     0  0.00   368   314  1073   147 168.8 17.38  17.7     0     0   810   241  1.21  0.90  61.3  15.4  2.21  0.00  0.00  0.00  0.00  0.00  0.00   2.0  0.00  0.00  0.00  0.00
 2023  59   180    97  16.1  -6.0 55.58  9.84  0.98  2.87 259.4  4.75 1.220  5.97  7232     9   793  6430  1984  3778     0  0.00   513   421  1152   155 168.8 18.00  18.4     0     0   793   239  1.21  0.91  57.6  16.3  1.94  0.00  0.00  0.00  0.00  0.00  0.00   2.0  0.00  0.00  0.00  0.00
 2023  60   181    98  12.6  -6.0 57.69  9.84  0.98  2.87  88.7  4.71 1.227  5.94  7317     9   796  6512  1979  3788     0  0.00   583   458  1183   162 168.8 18.51  18.6     0     0   780   238  1.21  0.92  56.4  51.5  5.01  0.00  0.00  0.00  0.00  0.00  0.00   2.0  0.00  0.00  0.00  0.00
 2023  61   182    99  14.6  -6.0 60.31  9.84  0.98  2.87 304.1  4.66 1.269  5.93  7612     9   808  6796  1972  3927     0  0.00   728   587  1275   169 168.8 19.09  19.2     0     0   765   237  1.21  0.93  52.5  13.4  1.31  0.00  0.00  0.00  0.00  0.00  0.00   2.0  0.00  0.00  0.00  0.00
 2023  62   183   100  14.9  -6.0 66.05  9.84  0.98  2.82 305.3  4.62 1.311  5.93  7910     9   818  7083  1964  4038     0  0.00   903   718  1369   177 168.8 19.69  19.8     0     0   751   235  1.21  0.94  48.3  11.8  0.98  0.04  0.02  0.24  0.00  0.00  0.00   2.0  0.00  0.00  0.00  0.00
 2023  63   184   101  14.5  -6.0 70.24  9.84  0.98  2.16 234.9  4.58 1.341  5.92  8137     9   828  7301  1957  4111     0  0.00  1048   817  1442   184 168.8 20.28  20.3     0     0   737   234  1.21  0.93  45.0  10.9  0.75  0.49  0.25  0.42  0.00  0.00  0.00   2.0  0.00  0.00  0.00  0.00
 2023  64   185   102  15.5  -6.0 71.13  9.84  0.97  1.71 187.7  4.44 1.362  5.80  8318     9   836  7474  1910  4173     4  0.00  1171   900  1523   217 168.8 20.92  21.0 14589 .0000   723   232  1.21  0.92  42.2   9.9  0.59  0.81  0.41  0.54  0.00  0.00  0.00   2.0  0.00  0.00  0.00  0.00
 2023  65   186   103  16.9  -6.0 72.10  9.84  0.97  1.47 156.0  4.30 1.379  5.68  8469     9   843  7618  1862  4213    23  0.00  1270   984  1580   250 168.8 21.63  21.5 14589 .0002   709   231  1.21  0.92  39.9   9.5  0.51  0.97  0.49  0.61  0.00  0.00  0.00   2.0  0.00  0.00  0.00  0.00
 2023  66   187   104  16.9  -6.0 73.07  9.84  0.97  1.66 136.0  4.16 1.370  5.53  8601     9   847  7746  1816  4260    59  0.01  1329  1020  1705   282 168.8 22.34  23.0 14589 .0004   694   229  1.21  0.94  90.3  27.7  0.58  0.85  0.42  0.56  0.00  0.00  0.00   2.0  0.00  0.00  0.00  0.00
 2023  67   188   105  18.4  -6.0 74.13  9.84  0.97  2.87 275.5  4.11 1.360  5.47  8874     9   849  8016  1806  4412   115  0.01  1392  1077  1927   292 168.8 23.12  25.3 14589 .0008   679   228  1.21  0.98  86.1  22.0  4.00  0.00  0.00  0.00  0.00  0.00  0.00   2.0  0.00  0.00  0.00  0.00
 2023  68   189   106  19.7  -6.0 75.26  9.84  0.97  2.87 300.1  4.06 1.350  5.41  9170     9   852  8310  1794  4563   197  0.02  1453  1159  2150   302 168.8 23.96  27.5 14589 .0014   664   226  1.21  0.98  81.5  18.6  5.38  0.00  0.00  0.00  0.00  0.00  0.00   2.0  0.00  0.00  0.00  0.00
 2023  69   190   107  19.4  -6.0 76.37  9.84  0.96  2.87 312.1  4.00 1.340  5.34  9479     9   855  8616  1784  4708   300  0.03  1513  1262  2363   312 168.8 24.78  29.5 14589 .0021   649   224  1.21  0.98  76.6  17.0  5.36  0.00  0.00  0.00  0.00  0.00  0.00   2.0  0.00  0.00  0.00  0.00
 2023  70   191   108  19.6  -6.0 77.50  9.84  0.96  2.87 307.4  3.95 1.331  5.28  9783     9   858  8917  1772  4832   426  0.05  1564  1388  2548   322 168.8 25.62  31.2 14589 .0029   635   223  1.21  0.98  71.9  16.1  4.79  0.00  0.00  0.00  0.00  0.00  0.00   2.0  0.00  0.00  0.00  0.00
 2023  71   192   109  22.8  -6.0 78.81  9.84  0.96  2.87 305.5  3.89 1.320  5.21 10085     9   860  9217  1758  4923   598  0.06  1603  1560  2688   334 168.8 26.60  32.4 14589 .0041   619   221  1.21  0.98  66.8  14.2  3.34  0.00  0.00  0.00  0.00  0.00  0.00   2.0  0.00  0.18  0.00  0.00
 2023  72   193   110  22.0  -6.0 80.02  9.84  0.96  2.87 311.8  3.83 1.309  5.14 10394     9   863  9522  1746  5001   794  0.08  1636  1755  2810   346 168.8 27.54  33.5 14589 .0054   604   219  1.21  0.98  61.7  13.1  2.39  0.00  0.00  0.00  0.00  0.00  0.00   2.0  0.00  0.13  0.00  0.00
 2023  73   194   111  19.8  -6.0 80.35  9.84  0.96  2.87 319.4  3.80 1.300  5.10 10710     9   866  9835  1745  5078   996  0.10  1666  1958  2924   349 168.8 28.40  34.4 14589 .0068   592   218  1.21  0.98  56.7  12.2  1.75  0.00  0.00  0.00  0.00  0.00  0.00   2.0  0.00  0.00  0.00  0.00
 2023  74   195   112  19.5  -6.0 80.67  9.84  0.96  2.87 280.6  3.77 1.291  5.06 10987     9   869 10110  1745  5130  1195  0.12  1687  2157  3003   353 168.8 29.24  35.1 14589 .0082   580   216  1.21  0.98  52.3  12.9  1.46  0.00  0.00  0.00  0.00  0.00  0.00   2.0  0.00  0.00  0.00  0.00
 2023  75   196   113  20.5  -6.0 81.01  9.84  0.96  2.87 256.9  3.74 1.282  5.03 11241     9   871 10362  1744  5158  1405  0.14  1698  2366  3049   357 168.8 30.13  35.5 14589 .0096   569   215  1.21  0.98  48.3  12.9  1.19  0.00  0.00  0.08  0.00  0.00  0.00   2.0  0.00  0.03  0.00  0.00
 2023  76   197   114  20.0  -6.0 81.34  9.84  0.95  2.87 109.8  3.72 1.274  4.99 11349     9   871 10470  1743  5086  1610  0.15  1670  2571  2955   360 168.8 31.00  34.8 14589 .0110   557   213  1.21  0.98 100.9  64.7  2.22  0.00  0.00  0.00  0.00  0.00  0.00   2.0  0.00  0.00  0.00  0.00
 2023  77   198   115  19.0  -6.0 81.66  9.84  0.95  2.87 298.9  3.69 1.266  4.96 11645     9   874 10762  1742  5154  1805  0.17  1697  2766  3057   364 168.8 31.83  35.6 14589 .0124   547   212  1.20  0.98 117.0  27.7  4.78  0.00  0.00  0.00  0.00  0.00  0.00   2.0  0.00  0.00  0.00  0.00
 2023  78   199   116  19.0  -6.0 81.97  9.84  0.95  2.87 313.7  3.67 1.258  4.92 11955     9   877 11070  1741  5233  2000  0.18  1728  2961  3172   367 168.8 32.67  36.5 14589 .0137   538   210  1.20  0.98  99.4  22.3  5.67  0.00  0.00  0.00  0.00  0.00  0.00   2.0  0.00  0.00  0.00  0.00
 2023  79   200   117  19.0  -6.0 82.29  9.84  0.95  2.87 310.6  3.64 1.250  4.89 12263     9   880 11374  1741  5309  2195  0.19  1759  3156  3285   371 168.8 33.50  37.3 14589 .0150   528   209  1.20  0.98  85.3  19.4  5.44  0.00  0.00  0.00  0.00  0.00  0.00   2.0  0.00  0.00  0.00  0.00
 2023  80   201   118  20.1  -6.0 82.62  9.84  0.95  2.87 307.5  3.61 1.242  4.86 12567     9   883 11676  1739  5376  2400  0.21  1785  3362  3385   375 168.8 34.39  38.0 14589 .0165   519   208  1.20  0.98  80.2  18.3  5.91  0.00  0.00  0.00  0.00  0.00  0.00   2.0  0.00  0.01  0.00  0.00
 2023  81   202   119  20.2  -6.0 82.96  9.84  0.95  2.87 307.2  3.59 1.234  4.82 12871     9   885 11977  1738  5441  2608  0.22  1811  3569  3483   378 168.8 35.28  38.7 14589 .0179   510   207  1.20  0.98  75.3  16.8  5.40  0.00  0.00  0.00  0.00  0.00  0.00   2.0  0.00  0.02  0.00  0.00
 2023  82   203   120  19.6  -6.0 83.28  9.84  0.95  2.87 319.1  3.56 1.226  4.79 13186     9   888 12289  1737  5520  2808  0.23  1843  3770  3598   382 168.8 36.15  39.5 14589 .0192   501   205  1.20  0.98  70.3  15.4  4.56  0.00  0.00  0.00  0.00  0.00  0.00   2.0  0.00  0.00  0.00  0.00
 2023  83   204   121  17.6  -6.0 83.57  9.84  0.95  2.87 340.6  3.54 1.220  4.76 13523     9   892 12623  1736  5628  2988  0.24  1885  3950  3755   385 168.8 36.93  40.6 14589 .0205   494   204  1.20  0.98  65.2  13.9  3.26  0.00  0.00  0.00  0.00  0.00  0.00   2.0  0.00  0.00  0.00  0.00
 2023  84   205   122  17.1  -6.0 83.86  9.84  0.95  2.87 326.6  3.52 1.213  4.74 13847     9   895 12943  1735  5730  3163  0.24  1926  4125  3904   389 168.8 37.69  41.6 14589 .0217   487   203  1.20  0.98  60.3  13.6  2.53  0.00  0.00  0.00  0.00  0.00  0.00   2.0  0.00  0.00  0.00  0.00
 2023  85   206   123  17.5  -6.0 84.15  9.84  0.95  2.87 329.0  3.50 1.207  4.71 14172     9   898 13266  1734  5831  3342  0.25  1966  4304  4050   392 168.8 38.47  42.5 14589 .0229   480   202  1.20  0.98  55.3  12.2  1.81  0.00  0.00  0.00  0.00  0.00  0.00   2.0  0.00  0.00  0.00  0.00
 2023  86   207   124  17.5  -6.0 84.44  9.84  0.94  2.87 255.4  3.48 1.201  4.68 14425     9   900 13516  1733  5880  3522  0.26  1986  4483  4124   395 168.8 39.26  43.0 14589 .0241   474   201  1.20  0.98  87.4  24.8  1.70  0.00  0.00  0.00  0.00  0.00  0.00   2.0  0.00  0.00  0.00  0.00
 2023  87   208   125  18.8  -6.0 84.75  9.84  0.94  2.87 306.7  3.46 1.194  4.65 14728     9   903 13817  1731  5957  3714  0.27  2016  4675  4237   399 168.8 40.11  43.7 14589 .0255   467   200  1.20  0.98  82.6  18.9  5.38  0.00  0.00  0.00  0.00  0.00  0.00   2.0  0.00  0.00  0.00  0.00
 2023  88   209   126  18.0  -6.0 85.05  9.84  0.93  2.87 317.2  3.29 1.188  4.48 15042     9   906 14127  1654  6057  3898  0.28  2071  4859  4412   448 168.8 40.92  45.1 14589 .0267   461   199  1.20  0.98  77.7  17.4  5.95  0.00  0.00  0.00  0.00  0.00  0.00   2.0  0.00  0.00  0.00  0.00
 2023  89   210   127  19.3  -6.0 85.37  9.84  0.93  2.87 310.3  3.12 1.181  4.30 15349     9   909 14431  1579  6143  4095  0.28  2120  5057  4566   495 168.8 41.79  46.4 14589 .0281   455   198  1.20  0.98  72.7  16.4  5.43  0.00  0.00  0.00  0.00  0.00  0.00   2.0  0.00  0.00  0.00  0.00
 2023  90   211   128  18.7  -6.0 85.67  9.84  0.91  2.87 339.0  2.95 1.175  4.12 15684     9   912 14764  1498  6254  4287  0.29  2179  5248  4757   545 168.8 42.64  47.9 14589 .0294   449   197  1.20  0.98  67.4  14.2  3.97  0.00  0.00  0.00  0.00  0.00  0.00   2.0  0.00  0.00  0.00  0.00
 2023  91   212   129  19.4  -6.0 86.00  9.84  0.90  2.87 325.5  2.78 1.169  3.94 16006     9   915 15083  1419  6352  4485  0.30  2233  5446  4928   594 168.8 43.53  49.3 14589 .0307   443   196  1.20  0.98  62.0  13.4  2.90  0.00  0.00  0.00  0.00  0.00  0.00   2.0  0.00  0.00  0.00  0.00
 2023  92   213   130  20.8  -6.0 86.34  9.84  0.88  2.87 313.0  2.60 1.162  3.76 16316     9   918 15389  1336  6430  4698  0.31  2280  5659  5072   645 168.8 44.48  50.5 14589 .0322   437   194  1.20  0.98  56.9  12.5  2.11  0.00  0.00  0.00  0.00  0.00  0.00   2.0  0.00  0.06  0.00  0.00
 2023  93   214   131  18.6  -6.0 86.65  9.84  0.87  2.87 293.6  2.41 1.156  3.57 16606     9   921 15677  1247  6511  4889  0.31  2330  5850  5224   701 168.8 45.34  51.8 14589 .0335   432   193  1.20  0.98  52.7  12.8  1.70  0.00  0.00  0.00  0.00  0.00  0.00   2.0  0.00  0.00  0.00  0.00
 2023  94   215   132  17.1  -6.0 86.93  9.84  0.85  2.87 315.7  2.24 1.151  3.39 16919     9   924 15986  1166  6619  5064  0.32  2388  6025  5408   750 168.8 46.12  53.2 14589 .0347   427   192  1.20  0.98  48.4  11.6  1.25  0.00  0.00  0.04  0.00  0.00  0.00   2.0  0.00  0.00  0.00  0.00
 2023  95   216   133  15.9  -6.0 87.19  9.84  0.82  2.87 303.5  2.09 1.146  3.24 17219     9   927 16284  1091  6728  5224  0.32  2445  6186  5590   795 168.8 46.85  54.5 14589 .0358   423   192  1.20  0.98  44.4  11.4  1.00  0.00  0.00  0.23  0.00  0.00  0.00   2.0  0.00  0.00  0.00  0.00
 2023  96   217   134  15.9  -6.0 87.46  9.84  0.80  2.14 230.9  1.95 1.141  3.09 17447     9   929 16510  1021  6784  5386  0.33  2481  6347  5697   838 168.8 47.59  55.4 14589 .0369   419   191  1.20  0.98  41.4  10.3  0.74  0.51  0.26  0.43  0.00  0.00  0.00   2.0  0.00  0.00  0.00  0.00
 2023  97   218   135  17.3  -6.0 87.74  9.84  0.78  1.74 183.1  1.81 1.136  2.94 17628     9   930 16690   951  6796  5563  0.33  2500  6524  5742   880 168.8 48.39  56.0 14589 .0381   415   190  1.20  0.98  38.9   9.7  0.61  0.79  0.39  0.53  0.00  0.00  0.00   2.0  0.00  0.00  0.00  0.00
 2023  98   219   136  19.2  -6.0 88.06  9.84  0.74  1.45 149.0  1.62 1.131  2.75 17775     9   931 16836   854  6774  5759  0.34  2510  6721  5749   937 168.8 49.29  56.7 14589 .0395   410   189  1.20  0.98  36.8   9.0  0.50  0.99  0.50  0.61  0.00  0.00  0.00   1.8  0.00  0.00  0.00  0.00
 2023  99   220   137  20.0  -6.0 88.39  9.84  0.69  1.29 127.6  1.41 1.121  2.53 17901     9   932 16961   751  6707  5964  0.35  2522  6926  5731  1017 168.8 50.22  57.4 14589 .0409   406   188  1.20  0.98  35.0   8.8  0.45  1.00  0.55  0.65  0.00  0.00  0.00   1.7  0.00  0.00  0.00  0.00
 2023 100   221   138  19.5  -6.0 88.72  9.84  0.63  1.33 114.3  1.21 1.111  2.32 18013     9   932 17073   645  6635  6164  0.36  2532  7125  5706  1097 168.8 51.13  58.1 14589 .0422   401   187  1.20  0.98  33.3   9.8  0.46  1.00  0.54  0.64  0.00  0.00  0.00   1.6  0.00  0.00  0.00  0.00
 2023 101   222   139  21.5  -6.0 89.07  9.84  0.57  1.22  99.4  1.01 1.100  2.11 18111     9   932 17170   543  6535  6384  0.37  2533  7346  5642  1176 168.8 52.13  58.7 14589 .0438   396   186  1.20  0.98  31.9   9.6  0.42  1.00  0.58  0.67  0.00  0.00  0.00   1.2  0.00  0.10  0.00  0.00
 2023 102   223   140  20.7  -6.0 89.42  9.84  0.49  1.28  92.6  0.80 1.090  1.89 18202     9   932 17261   432  6439  6595  0.38  2536  7557  5586  1259 168.8 53.09  59.4 14589 .0452   392   185  1.20  0.98  30.6  10.6  0.45  1.00  0.55  0.66  0.00  0.00  0.00   1.1  0.00  0.04  0.00  0.00
 2023 103   224   141  20.1  -6.0 89.75  9.84  0.39  1.68  87.5  0.60 1.081  1.68 18288     9   932 17347   327  6344  6801  0.39  2537  7762  5528  1337 168.8 54.03  60.0 14589 .0466   388   184  1.20  0.98  29.4  14.6  0.58  0.83  0.42  0.55  0.00  0.00  0.00   1.1  0.00  0.01  0.00  0.00
 2023 104   225   142  20.2  -6.0 90.25  9.84  0.29  1.63  80.7  0.41 1.071  1.49 18367     9   932 17426   226  6278  6959  0.40  2549  7921  5507  1413 168.8 54.97  60.8 14589 .0477   383   183  1.20  0.98  28.3  14.9  0.57  0.86  0.43  0.56  0.00  0.00  0.00   0.9  0.00  0.01  0.00  0.00

*DSSAT Cropping System Model Ver. 4.8.2.000 -release  JUN 26, 2025 10:31:25

*RUN   2        : WW23_G-2                  CSCER048 CIOB2301    2
 MODEL          : CSCER048 - Wheat
 EXPERIMENT     : CIOB2301 WH ROOTS ANATOMY
 DATA PATH      : C:\DSSAT48\Wheat\
 TREATMENT  2   : WW23_G-2                  CSCER048
  
@YEAR DOY   DAS   DAP TMEAN TKILL  GSTD  L#SD PARID PARUD  AWAD  LAID  SAID  CAID  TWAD SDWAD  RWAD  CWAD  LWAD  SWAD  HWAD  HIAD CHWAD  EWAD RSWAD SNWPD SNWLD SNWSD  RS%D  H#AD  HWUD  T#AD  SLAD  RDPD  PTFD  SWXD WAVRD WUPRD  WFTD  WFPD  WFGD  NFTD  NFPD  NFGD NUPRD  TFPD  TFGD VRNFD DYLFD
 2022 327    83     0  17.6  -6.0  0.00  0.00  0.00  0.00   0.0  0.00 0.000  0.00    43    43     0     0     0     0     0  0.00     0     0     0     0     0     0   0.0     0     0   150   -99  0.04  0.98  19.7  99.9  1.00  0.00  0.00  0.00  0.00  0.00  0.00   0.0  0.00  0.00  0.54  0.00
 2022 328    84     1  16.4  -6.0  5.84  0.00  0.00  0.00   0.0  0.00 0.000  0.00    43    43     0     0     0     0     0  0.00     0     0     0     0     0     0   0.0     0     0   150   -99  0.04  0.98   7.2  99.9  1.00  0.00  0.00  0.00  0.00  0.00  0.00   0.0  0.00  0.00  0.54  0.00
 2022 329    85     2  17.4  -6.0  8.40  0.00  0.00  0.00   0.0  0.00 0.000  0.00    43    41     1     0     0     0     0  0.00     0     0     0     0     0     0   0.0     0     0   150   -99  0.07  0.98   4.6  99.9  1.00  0.00  0.00  0.00  0.00  0.00  0.00   0.0  0.00  0.00  0.54  0.00
 2022 330    86     3  18.0  -6.0 10.00  0.00  0.00  0.00   0.0  0.00 0.000  0.00    43    40     3     0     0     0     0  0.00     0     0     0     0     0 .0013   0.0     0     0   150   -99  0.10  0.98   4.2  99.9  1.00  0.00  0.00  0.00  0.00  0.00  0.00   2.0  0.00  0.00  0.54  0.00
 2022 331    87     4  16.3  -6.0 10.28  0.28  0.03  0.00   0.0  0.03 0.003  0.03    43    26     4    13     8     4     0  0.00     0     0     0     0     0 .0037   0.0     0     0   150   350  0.12  0.75   4.4  99.9  1.00  0.00  0.00  0.00  0.00  0.00  0.00   0.1  0.00  0.00  0.54  0.26
 2022 332    88     5  16.1  -6.0 10.56  0.56  0.03  0.66   1.3  0.04 0.004  0.04    44    20     6    18    12     7     0  0.00     0     0     1     0 0.127 .0072   5.7     0     0   150   347  0.15  0.69   4.8  63.7  0.34  1.00  0.66  0.74  0.00  0.00  0.00   0.2  0.00  0.00  0.54  0.26
 2022 333    89     6  18.1  -6.0 10.88  0.88  0.04  0.46   1.2  0.05 0.005  0.06    45    13     7    24    15     9     0  0.00     0     0     2     0 0.298 .0123   8.5     0     0   150   347  0.18  0.69   6.4  61.5  0.32  1.00  0.68  0.75  0.26  0.26  0.26   0.2  0.00  0.00  0.54  0.26
 2022 334    90     7  18.5  -6.0 11.20  1.20  0.05  0.42   1.4  0.06 0.006  0.06    46    10     9    27    17    10     0  0.00     0     0     2     0 0.516 .0190   7.7     0     0   150   346  0.21  0.69   8.1  62.5  0.37  1.00  0.63  0.71  0.40  0.40  0.40   0.5  0.00  0.00  0.54  0.26
 2022 335    91     8  19.2  -6.0 11.53  1.53  0.05  0.45   1.7  0.06 0.006  0.07    47     9     9    29    18    11     0  0.00     0     0     2     0 0.763 .0274   7.5     0     0   150   346  0.24  0.70   9.9  65.5  0.41  1.00  0.59  0.68  0.42  0.42  0.42   1.0  0.00  0.00  0.54  0.26
 2022 336    92     9  23.0  -6.0 11.93  1.93  0.05  0.47   1.8  0.06 0.006  0.07    48     9    10    30    19    11     0  0.00     0     0     2     0 1.026 .0381   7.4     0     0   150   345  0.28  0.70  12.1  73.6  0.39  1.00  0.61  0.70  0.37  0.37  0.37   1.4  0.00  0.20  0.54  0.26
 2022 337    93    10  23.0  -6.0 12.16  2.16  0.06  0.53   2.0  0.07 0.007  0.07    50     9    10    31    19    12     0  0.00     0     0     2     0 1.299 .0493   7.3     0     0   150   344  0.32  0.70  14.3  92.1  0.41  1.00  0.59  0.68  0.33  0.33  0.33   1.5  0.00  0.20  0.54  0.26
 2022 338    94    11  22.0  -6.0 12.35  2.35  0.06  0.57   2.1  0.07 0.007  0.08    51     9    10    32    20    12     0  0.00     0     0     2     0 1.583 .0605   7.3     0     0   150   343  0.35  0.70  16.7  99.9  0.42  1.00  0.58  0.68  0.29  0.29  0.29   1.6  0.00  0.13  0.54  0.26
 2022 339    95    12  22.2  -6.0 12.55  2.55  0.06  1.42   2.2  0.07 0.007  0.08    53     9    11    34    21    12     0  0.00     0     0     2     0 1.583 .0721   6.3     0     0   193   342  0.38  0.74  18.2  99.9  1.03  0.00  0.00  0.21  0.26  0.26  0.26   1.6  0.00  0.15  0.54  0.26
 2022 340    96    13  19.7  -6.0 12.72  2.72  0.06  1.48   1.8  0.08 0.008  0.08    55     9    11    35    22    13     0  0.00     0     0     2     0 1.583 .0828   5.5     0     0   233   341  0.40  0.74  21.5  99.9  1.45  0.00  0.00  0.00  0.23  0.23  0.23   1.7  0.00  0.00  0.54  0.26
 2022 341    97    14  20.0  -6.0 12.89  2.89  0.07  1.37   2.8  0.08 0.008  0.09    57     9    12    37    24    13     0  0.00     0     0     2     0 1.583 .0938   4.7     0     0   274   340  0.42  0.74  22.1  99.9  0.90  0.20  0.10  0.31  0.20  0.20  0.20   1.5  0.00  0.00  0.54  0.26
 2022 342    98    15  20.8  -6.0 13.07  3.07  0.07  0.63   2.9  0.08 0.009  0.09    59     9    12    39    25    14     0  0.00     0     0     2     0 1.933 0.106   5.0     0     0   274   339  0.44  0.70  22.9  99.9  0.40  1.00  0.60  0.69  0.18  0.18  0.18   1.5  0.00  0.05  0.54  0.26
 2022 343    99    16  18.0  -6.0 13.23  3.23  0.07  0.62   3.3  0.09 0.009  0.10    62     9    13    41    26    15     0  0.00     0     0     2     0 2.298 0.117   5.3     0     0   274   337  0.46  0.70  24.2  99.9  0.38  1.00  0.62  0.70  0.16  0.16  0.16   1.7  0.00  0.00  0.54  0.27
 2022 344   100    17  17.0  -6.0 13.37  3.37  0.08  0.63   3.7  0.09 0.009  0.10    65     9    13    43    27    16     0  0.00     0     0     2     0 2.679 0.127   5.5     0     0   274   336  0.48  0.70  25.3  99.9  0.38  1.00  0.62  0.71  0.14  0.14  0.14   1.6  0.00  0.00  0.54  0.27
 2022 345   101    18  16.2  -6.0 13.51  3.51  0.08  0.69   4.1  0.10 0.010  0.11    68     9    14    46    29    17     0  0.00     0     0     3     0 3.079 0.138   5.6     0     0   274   335  0.49  0.71  26.3  99.9  0.41  1.00  0.59  0.68  0.12  0.12  0.12   1.6  0.00  0.00  0.54  0.27
 2022 346   102    19  16.1  -6.0 13.65  3.65  0.08  0.73   4.6  0.10 0.011  0.11    72     9    15    48    31    18     0  0.00     0     0     3     0 3.501 0.149   5.8     0     0   274   333  0.51  0.71  27.3  99.9  0.42  1.00  0.58  0.67  0.10  0.10  0.10   1.6  0.00  0.00  0.54  0.27
 2022 347   103    20  15.1  -6.0 13.79  3.79  0.09  0.83   5.2  0.11 0.011  0.12    76     9    16    52    33    19     0  0.00     0     0     3     0 3.948 0.160   5.8     0     0   274   332  0.53  0.72  75.5  99.9  0.48  1.00  0.52  0.63  0.09  0.09  0.09   1.3  0.00  0.00  0.54  0.27
 2022 348   104    21  15.2  -6.0 21.07  3.92  0.11  1.77  12.6  0.13 0.014  0.14    87     9    17    61    39    22     0  0.00     0     0     3     0 3.948 0.172   4.7     0     0   311   330  0.54  0.76  58.6  99.9  1.69  0.00  0.00  0.00  0.07  0.07  0.07   1.4  0.00  0.00  0.54  0.27
 2022 349   105    22  14.6  -6.0 21.31  4.04  0.12  1.80  14.7  0.15 0.016  0.17   100     9    19    73    47    26     0  0.00     0     0     3     0 3.948 0.185   3.8     0     0   346   328  0.56  0.76  43.2  99.9  1.72  0.00  0.00  0.00  0.06  0.06  0.06   1.2  0.00  0.00  0.53  0.27
 2022 350   106    23  12.5  -6.0 21.52  4.15  0.13  1.83   9.7  0.16 0.017  0.18   108     9    21    79    50    29     0  0.00     0     0     4     0 5.269 0.197   5.0     0     0   378   326  0.57  0.77  36.8  99.9  2.03  0.00  0.00  0.00  0.04  0.04  0.04   1.3  0.00  0.00  0.44  0.27
 2022 351   107    24  14.9  -6.0 21.77  4.28  0.15  1.84  17.8  0.18 0.020  0.20   123     9    23    91    57    34     0  0.00     0     0     5     0 6.856 0.213   6.0     0     0   415   324  0.59  0.77  34.9  99.9  1.12  0.00  0.00  0.14  0.03  0.03  0.03   0.8  0.00  0.00  0.44  0.27
 2022 352   108    25  15.5  -6.0 22.02  4.42  0.16  1.80  19.6  0.21 0.023  0.23   139     9    26   104    65    39     0  0.00     0     0     7     0 8.512 0.231   6.5     0     0   453   322  0.60  0.77  35.5  90.3  1.02  0.00  0.00  0.21  0.06  0.06  0.06   0.8  0.00  0.00  0.44  0.27
 2022 353   109    26  14.8  -6.0 22.26  4.54  0.18  1.71  21.2  0.24 0.026  0.26   156     9    29   119    73    45     0  0.00     0     0     8     0 10.10 0.250   6.8     0     0   489   320  0.62  0.77  36.0  81.8  0.96  0.07  0.04  0.26  0.07  0.07  0.07   0.9  0.00  0.00  0.43  0.27
 2022 354   110    27  16.6  -6.0 22.52  4.69  0.20  1.73  21.8  0.26 0.029  0.29   174     9    32   134    82    51     0  0.00     0     0     9     0 11.89 0.274   7.0     0     0   529   319  0.64  0.77  36.7  79.2  0.98  0.05  0.02  0.25  0.07  0.07  0.07   0.9  0.00  0.00  0.43  0.27
 2022 355   111    28  15.2  -6.0 22.72  4.82  0.23  1.54  23.9  0.30 0.033  0.33   195     9    35   151    94    57     0  0.00     0     0     9     0 12.18 0.298   6.0     0     0   557   318  0.65  0.76  37.2  66.5  0.86  0.28  0.14  0.34  0.07  0.07  0.07   1.0  0.00  0.00  0.43  0.27
 2022 356   112    29  15.3  -6.0 22.88  4.95  0.25  1.46  25.7  0.34 0.038  0.38   219     9    39   171   108    63     0  0.00     0     0     9     0 12.18 0.326   5.1     0     0   582   316  0.66  0.76  37.6  58.9  0.81  0.38  0.19  0.38  0.06  0.06  0.06   0.9  0.00  0.00  0.43  0.27
 2022 357   113    30  15.9  -6.0 23.03  5.09  0.28  1.38  27.0  0.38 0.042  0.43   243     9    43   191   121    70     0  0.00     0     0     8     0 12.18 0.357   4.3     0     0   604   316  0.68  0.75  38.0  53.1  0.77  0.45  0.23  0.41  0.06  0.06  0.06   0.9  0.00  0.00  0.43  0.27
 2022 358   114    31  16.2  -6.0 23.16  5.23  0.31  1.30  28.1  0.42 0.047  0.47   268     9    47   212   135    77     0  0.00     0     0     8     0 12.65 0.392   4.0     0     0   623   314  0.69  0.75  38.4  48.2  0.72  0.55  0.28  0.44  0.06  0.06  0.06   0.9  0.00  0.00  0.43  0.27
 2022 359   115    32  17.8  -6.0 23.26  5.39  0.33  1.19  28.2  0.46 0.052  0.52   292     9    52   232   148    84     0  0.00     0     0     9     0 13.17 0.434   3.7     0     0   638   313  0.71  0.74  39.0  43.0  0.66  0.68  0.34  0.49  0.06  0.06  0.06   1.0  0.00  0.00  0.50  0.27
 2022 360   116    33  17.0  -6.0 23.37  5.53  0.35  1.15  29.8  0.51 0.057  0.56   319     9    56   254   162    91     0  0.00     0     0     9     0 13.67 0.478   3.5     0     0   656   311  0.72  0.74  39.4  40.5  0.63  0.74  0.37  0.51  0.05  0.05  0.05   1.1  0.00  0.00  0.50  0.27
 2022 361   117    34  17.5  -6.0 23.46  5.69  0.38  1.11  30.4  0.55 0.062  0.61   345     9    61   276   177    99     0  0.00     0     0     9     0 14.18 0.527   3.3     0     0   670   310  0.74  0.74  39.9  38.2  0.60  0.79  0.40  0.54  0.04  0.04  0.04   1.1  0.00  0.00  0.54  0.27
 2022 362   118    35  16.6  -6.0 23.86  5.83  0.40  1.78  32.6  0.60 0.068  0.66   374     9    65   301   193   107     0  0.00     0     0     9     0 14.66 0.578   3.1     0     0   729   309  0.75  0.78  40.3  60.2  0.96  0.08  0.04  0.26  0.03  0.03  0.03   1.1  0.00  0.00  0.54  0.27
 2022 363   119    36  17.2  -6.0 24.30  5.98  0.42  1.87  15.8  0.62 0.070  0.69   388     9    67   312   201   111     0  0.00     0     0     9     0 15.17 0.634   2.9     0     0   795   309  0.77  0.78  41.4  99.9  2.11  0.00  0.00  0.00  0.02  0.02  0.02   2.0  0.00  0.00  0.54  0.27
 2022 364   120    37  18.6  -6.0 24.35  6.14  0.43  1.05  31.7  0.65 0.074  0.73   413     9    72   332   212   120     0  0.00     0     0    12     0 18.43 0.697   3.7     0     0   803   308  0.79  0.74  41.9  36.0  0.56  0.89  0.44  0.57  0.02  0.02  0.02   1.3  0.00  0.00  0.54  0.27
 2022 365   121    38  17.8  -6.0 24.38  6.29  0.45  0.99  32.7  0.68 0.078  0.76   439     9    77   353   223   130     0  0.00     0     0    15     0 22.23 0.761   4.4     0     0   807   307  0.80  0.73  42.4  33.7  0.52  0.95  0.48  0.60  0.01  0.01  0.01   1.6  0.00  0.00  0.54  0.27
 2023   1   122    39  16.6  -6.0 24.48  6.44  0.47  1.17  34.9  0.74 0.084  0.82   470     9    83   379   241   138     0  0.00     0     0    15     0 22.23 0.825   3.9     0     0   821   306  0.82  0.74  42.8  39.2  0.62  0.77  0.38  0.53  0.01  0.01  0.01   1.6  0.00  0.00  0.54  0.27
 2023   2   123    40  15.1  -6.0 24.67  6.57  0.50  1.42  36.8  0.79 0.091  0.88   503     9    88   406   260   147     0  0.00     0     0    14     0 22.23 0.888   3.4     0     0   851   305  0.83  0.76  43.1  47.1  0.75  0.50  0.25  0.42  0.00  0.00  0.00   1.2  0.00  0.00  0.54  0.27
 2023   3   124    41  13.8  -6.0 24.70  6.69  0.51  1.02  38.2  0.83 0.096  0.93   533     9    94   431   273   158     0  0.00     0     0    17     0 25.93 0.949   4.0     0     0   855   304  0.84  0.74  85.2  65.6  0.54  0.93  0.46  0.59  0.00  0.00  0.00   1.2  0.00  0.00  0.50  0.27
 2023   4   125    42  16.3  -6.0 25.12  6.83  0.56  1.91  76.1  0.94 0.110  1.05   603     9   104   491   312   178     0  0.00     0     0    17     0 25.93 1.025   3.5     0     0   918   302  0.86  0.78  68.6  44.4  1.79  0.00  0.00  0.00  0.00  0.00  0.00   1.5  0.00  0.00  0.50  0.27
 2023   5   126    43  17.6  -6.0 25.58  6.98  0.60  1.91  85.6  1.07 0.125  1.20   681     9   115   558   356   202     0  0.00     0     0    18     0 25.93 1.117   3.2     0     0   987   301  0.87  0.79  59.6  33.9  1.74  0.00  0.00  0.00  0.00  0.00  0.00   1.3  0.00  0.00  0.52  0.26
 2023   6   127    44  18.3  -6.0 26.05  7.14  0.65  1.91  91.0  1.21 0.142  1.35   764     9   126   629   402   228     0  0.00     0     0    18     0 25.93 1.222   2.9     0     0  1058   300  0.89  0.79  56.2  30.2  1.44  0.00  0.00  0.00  0.00  0.00  0.00   1.1  0.00  0.00  0.52  0.26
 2023   7   128    45  17.7  -6.0 26.51  7.29  0.68  1.91  94.5  1.33 0.158  1.49   848     9   138   701   447   254     0  0.00     0     0    21     0 28.50 1.333   3.1     0     0  1127   298  0.91  0.79  54.6  28.8  1.36  0.00  0.00  0.00  0.00  0.00  0.00   1.0  0.00  0.00  0.52  0.26
 2023   8   129    46  17.3  -6.0 26.96  7.44  0.72  1.91  99.8  1.47 0.175  1.64   937     9   151   777   495   283     0  0.00     0     0    25     0 31.01 1.453   3.2     0     0  1195   297  0.92  0.79  53.5  26.8  1.23  0.00  0.00  0.05  0.00  0.00  0.00   1.1  0.00  0.00  0.52  0.26
 2023   9   130    47  16.6  -6.0 27.40  7.59  0.75  1.91 109.7  1.62 0.194  1.81  1034     9   165   861   547   314     0  0.00     0     0    27     0 33.44 1.579   3.2     0     0  1260   295  0.94  0.79  52.4  24.1  1.03  0.00  0.00  0.21  0.00  0.00  0.00   1.0  0.00  0.00  0.52  0.26
 2023  10   131    48  17.2  -6.0 27.78  7.74  0.78  1.76 102.7  1.75 0.211  1.97  1126     9   178   939   596   343     0  0.00     0     0    30     0 35.96 1.720   3.2     0     0  1316   294  0.95  0.78  51.4  23.0  0.92  0.15  0.08  0.29  0.00  0.00  0.00   1.0  0.00  0.00  0.52  0.26
 2023  11   132    49  17.9  -6.0 28.05  7.89  0.80  1.52  96.7  1.89 0.228  2.12  1212     9   191  1012   641   371     0  0.00     0     0    31     0 37.24 1.879   3.1     0     0  1358   294  0.97  0.77  50.6  20.4  0.80  0.41  0.20  0.39  0.00  0.00  0.00   1.1  0.00  0.00  0.54  0.26
 2023  12   133    50  18.4  -6.0 28.26  8.05  0.82  1.37  90.5  2.02 0.244  2.26  1294     9   204  1081   683   398     0  0.00     0     0    30     0 37.24 2.055   2.8     0     0  1389   295  0.99  0.76  49.9  19.4  0.72  0.56  0.28  0.45  0.00  0.00  0.00   1.2  0.00  0.00  0.54  0.26
 2023  13   134    51  16.6  -6.0 28.40  8.20  0.84  1.26  84.1  2.10 0.255  2.35  1361     9   216  1136   719   417     0  0.00     0     0    38     0 45.81 2.225   3.4     0     0  1410   292  1.00  0.76  49.4  19.3  0.66  0.68  0.34  0.49  0.00  0.00  0.00   1.2  0.00  0.00  0.54  0.26
 2023  14   135    52  17.6  -6.0 28.49  8.35  0.84  1.13  75.8  2.12 0.260  2.38  1410     9   227  1174   732   442     0  0.00     0     0    56     0 65.08 2.416   4.8     0     0  1423   290  1.02  0.75  49.0  18.7  0.59  0.81  0.41  0.54  0.00  0.00  0.00   1.8  0.00  0.00  0.54  0.26
 2023  15   136    53  16.9  -6.0 28.78  8.50  0.85  1.58  73.2  2.19 0.270  2.46  1467     9   237  1222   759   463     0  0.00     0     0    61     0 73.80 2.607   5.0     0     0  1466   289  1.03  0.78  48.7  28.1  0.83  0.34  0.17  0.36  0.00  0.00  0.00   2.0  0.00  0.00  0.54  0.26
 2023  16   137    54  17.0  -6.0 28.80  8.64  0.85  1.00  67.8  2.21 0.274  2.49  1509     9   247  1253   768   486     0  0.00     0     0    77     0 93.28 2.807   6.1     0     0  1469   288  1.05  0.75  48.5  18.9  0.52  0.95  0.48  0.60  0.00  0.00  0.00   2.0  0.00  0.00  0.54  0.26
 2023  17   138    55  14.1  -6.0 29.16  8.76  0.86  1.91  39.0  2.27 0.281  2.55  1541     9   251  1281   788   493     0  0.00     0     0    74     0 96.93 2.981   5.8     0     0  1524   288  1.06  0.79  49.0  68.1  1.75  0.00  0.00  0.00  0.00  0.00  0.00   2.0  0.00  0.00  0.51  0.26
 2023  18   139    56  13.8  -6.0 29.18  8.88  0.87  1.00  66.0  2.32 0.288  2.61  1589     9   261  1319   808   511     0  0.00     0     0    80     0 108.0 3.155   6.0     0     0  1527   287  1.07  0.75  48.7  20.7  0.52  0.95  0.48  0.60  0.00  0.00  0.00   1.6  0.00  0.00  0.47  0.26
 2023  19   140    57  14.2  -6.0 29.18  9.01  0.87  0.93  61.6  2.37 0.295  2.66  1632     9   271  1353   827   527     0  0.00     0     0    85     0 119.3 3.341   6.3     0     0  1527   286  1.08  0.74  48.5  20.3  0.49  1.00  0.51  0.62  0.00  0.00  0.00   2.0  0.00  0.00  0.44  0.26
 2023  20   141    58  13.8  -6.0 29.18  9.13  0.87  0.80  59.2  2.37 0.298  2.67  1665     9   280  1377   832   545     0  0.00     0     0    98     0 139.3 3.527   7.1     0     0  1527   285  1.10  0.74 104.8  39.1  0.42  1.00  0.58  0.68  0.00  0.00  0.00   2.0  0.00  0.00  0.40  0.25
 2023  21   142    59  14.1  -6.0 29.55  9.25  0.89  1.91 143.0  2.55 0.321  2.87  1788     9   297  1483   897   585     0  0.00     0     0   102     0 147.9 3.724   6.9     0     0  1582   284  1.11  0.80  88.1  32.6  3.04  0.00  0.00  0.00  0.00  0.00  0.00   2.0  0.00  0.00  0.37  0.25
 2023  22   143    60  14.1  -6.0 29.55  9.37  0.91  1.91 149.3  2.73 0.346  3.07  1916     9   315  1593   966   627     0  0.00     0     0   105     0 156.5 3.933   6.6     0     0  1582   282  1.12  0.80  78.9  27.8  3.07  0.00  0.00  0.00  0.00  0.00  0.00   1.8  0.00  0.00  0.34  0.25
 2023  23   144    61  12.6  -6.0 29.55  9.48  0.92  1.91 128.6  2.89 0.368  3.25  2027     9   330  1688  1027   661     0  0.00     0     0   107     0 164.2 4.130   6.3     0     0  1582   281  1.13  0.80  76.4  32.5  3.79  0.00  0.00  0.00  0.00  0.00  0.00   2.0  0.00  0.00  0.26  0.25
 2023  24   145    62  13.1  -6.0 29.55  9.59  0.93  1.91 154.9  3.10 0.397  3.49  2166     9   349  1809  1107   702     0  0.00     0     0   105     0 167.1 4.347   5.8     0     0  1582   280  1.14  0.80  74.0  25.9  2.89  0.00  0.00  0.00  0.00  0.00  0.00   1.8  0.00  0.00  0.19  0.25
 2023  25   146    63  14.5  -6.0 29.55  9.72  0.94  1.91 158.1  3.32 0.427  3.75  2311     9   367  1935  1192   743     0  0.00     0     0   100     0 167.1 4.599   5.2     0     0  1582   279  1.16  0.80  71.6  23.5  2.46  0.00  0.00  0.00  0.00  0.00  0.00   1.6  0.00  0.00  0.00  0.00
 2023  26   147    64  15.7  -6.0 29.55  9.85  0.95  1.91 147.6  3.53 0.456  3.99  2447     9   384  2054  1273   781     0  0.00     0     0    96     0 167.1 4.887   4.7     0     0  1582   278  1.17  0.80  69.5  23.9  2.35  0.00  0.00  0.00  0.00  0.00  0.00   1.8  0.00  0.00  0.00  0.00
 2023  27   148    65  12.1  -6.0 29.55  9.96  0.96  1.91 119.0  3.70 0.479  4.18  2556     9   398  2150  1337   813     0  0.00     0     0    92     0 167.1 5.120   4.3     0     0  1582   277  1.18  0.81  67.9  30.9  2.65  0.00  0.00  0.00  0.00  0.00  0.00   2.0  0.00  0.00  0.00  0.00
 2023  28   149    66  15.6  -6.0 29.55 10.09  0.97  1.91 133.6  3.88 0.505  4.39  2679     9   413  2258  1398   860     0  0.00     0     0    89     0 167.1 5.431   4.0     0     0  1582   278  1.20  0.81  66.1  24.7  1.93  0.00  0.00  0.00  0.00  0.00  0.00   2.0  0.00  0.00  0.00  0.00
 2023  29   150    67  14.4  -6.0 30.10 10.22  0.97  1.91 162.9  4.07 0.534  4.61  2826     9   431  2386  1471   915     0  0.00     0     0    93     0 171.1 5.729   3.9     0     0  1582   277  1.21  0.81  63.6  20.0  1.39  0.00  0.00  0.00  0.00  0.00  0.00   1.8  0.00  0.00  0.00  0.00
 2023  30   151    68  14.6  -6.0 30.80 10.35  0.97  1.91 146.2  4.25 0.560  4.81  2956     9   448  2500  1535   965     0  0.00     0     0    97     0 175.2 6.043   3.9     0     0  1582   276  1.22  0.81  61.2  21.3  1.30  0.00  0.00  0.00  0.00  0.00  0.00   2.0  0.00  0.00  0.00  0.00
 2023  31   152    69  14.5  -6.0 31.49 10.47  0.98  1.91 150.6  4.42 0.587  5.00  3092     9   464  2619  1601  1018     0  0.00     0     0   101     0 179.3 6.368   3.8     0     0  1582   276  1.22  0.82  58.1  19.6  1.09  0.00  0.00  0.16  0.00  0.00  0.00   2.0  0.00  0.00  0.00  0.00
 2023  32   153    70  13.4  -6.0 32.12 10.59  0.98  1.91 112.9  4.55 0.608  5.15  3192     9   476  2708  1649  1059     0  0.00     0     0   102     0 183.0 6.677   3.8     0     0  1582   276  1.22  0.82  55.8  26.1  1.29  0.00  0.00  0.01  0.00  0.00  0.00   2.0  0.00  0.00  0.00  0.00
 2023  33   154    71  15.9  -6.0 32.88 10.72  0.98  1.51 123.0  4.68 0.629  5.31  3300     9   490  2802  1699  1102     0  0.00     0     0   105     0 187.5 7.054   3.8     0     0  1582   275  1.22  0.80  53.2  17.0  0.79  0.41  0.21  0.39  0.00  0.00  0.00   2.0  0.00  0.00  0.00  0.00
 2023  34   155    72  16.9  -6.0 33.68 10.87  0.98  1.29 104.6  4.78 0.647  5.43  3391     9   503  2880  1740  1140     0  0.00     0     0   107     0 192.2 7.468   3.7     0     0  1582   275  1.22  0.79  97.7  30.2  0.68  0.65  0.32  0.48  0.00  0.00  0.00   2.0  0.00  0.00  0.00  0.00
 2023  35   156    73  16.9  -6.0 34.48 11.02  0.99  1.91 160.5  4.95 0.675  5.63  3535     9   519  3007  1807  1201     0  0.00     0     0   115     0 197.0 7.893   3.8     0     0  1582   274  1.22  0.83  89.5  26.5  3.80  0.00  0.00  0.00  0.00  0.00  0.00   2.0  0.00  0.00  0.00  0.00
 2023  36   157    74  18.1  -6.0 35.35 11.17  0.99  1.91 160.8  5.11 0.704  5.81  3680     9   535  3136  1873  1263     0  0.00     0     0   123     0 202.1 8.364   3.9     0     0  1582   273  1.22  0.83  83.4  24.1  4.41  0.00  0.00  0.00  0.00  0.00  0.00   2.0  0.00  0.00  0.00  0.00
 2023  37   158    75  16.7  -6.0 36.14 11.32  0.99  1.91 154.5  5.26 0.731  5.99  3819     9   550  3260  1935  1325     0  0.00     0     0   130     0 206.8 8.811   4.0     0     0  1582   272  1.22  0.83  80.1  25.0  4.79  0.00  0.00  0.00  0.00  0.00  0.00   2.0  0.00  0.00  0.00  0.00
 2023  38   159    76  16.2  -6.0 36.92 11.46  0.99  1.91 168.0  5.41 0.761  6.18  3970     9   567  3395  2002  1393     0  0.00     0     0   139     0 211.4 9.257   4.1     0     0  1582   270  1.22  0.84  76.6  22.4  4.31  0.00  0.00  0.00  0.00  0.00  0.00   2.0  0.00  0.00  0.00  0.00
 2023  39   160    77  18.1  -6.0 37.78 11.62  0.99  1.91 172.9  5.57 0.792  6.36  4127     9   583  3535  2070  1465     0  0.00     0     0   149     0 216.5 9.771   4.2     0     0  1582   269  1.22  0.84  72.8  19.6  3.47  0.00  0.00  0.00  0.00  0.00  0.00   2.0  0.00  0.00  0.00  0.00
 2023  40   161    78  15.1  -6.0 38.50 11.75  0.99  1.91 175.0  5.73 0.824  6.55  4286     9   599  3678  2138  1540     0  0.00     0     0   158     0 220.8 10.21   4.3     0     0  1582   268  1.22  0.84  69.2  19.5  2.85  0.00  0.00  0.00  0.00  0.00  0.00   2.0  0.00  0.00  0.00  0.00
 2023  41   162    79  17.1  -6.0 39.32 11.90  0.99  1.91 154.4  5.87 0.852  6.72  4425     9   613  3804  2196  1608     0  0.00     0     0   165     0 225.7 10.72   4.3     0     0  1582   267  1.22  0.84  65.9  20.1  2.50  0.00  0.00  0.00  0.00  0.00  0.00   2.0  0.00  0.00  0.00  0.00
 2023  42   163    80  14.0  -6.0 39.98 12.02  0.99  1.91  55.9  5.93 0.864  6.79  4473     9   618  3847  2212  1635     0  0.00     0     0   160     0 229.7 11.15   4.2     0     0  1582   268  1.22  0.85  64.8  59.4  6.16  0.00  0.00  0.00  0.00  0.00  0.00   2.0  0.00  0.00  0.00  0.00
 2023  43   164    81  15.7  -6.0 40.77 12.15  0.99  1.91 157.4  6.05 0.892  6.95  4616     9   631  3976  2270  1707     0  0.00     0     0   169     0 234.2 11.64   4.2     0     0  1582   267  1.22  0.85  61.5  19.3  1.97  0.00  0.00  0.00  0.00  0.00  0.00   2.0  0.00  0.00  0.00  0.00
 2023  44   165    82  13.9  -6.0 41.46 12.15  0.99  2.87 159.6  6.01 0.911  6.92  4766     9   645  4113  2307  1795     0  0.00     0     0   221    11 234.2 12.08   5.4     0     0  1582   261  1.22  0.85  59.5  29.0  2.54  0.00  0.00  0.00  0.00  0.00  0.00   2.0  0.00  0.00  0.00  0.00
 2023  45   166    83  13.7  -6.0 42.15 12.15  0.99  2.87 238.0  5.97 0.942  6.91  4990     9   665  4317  2330  1965     0  0.00     0     0   293    22 234.2 12.52   6.8     0     0  1582   256  1.22  0.86  56.3  18.2  1.51  0.00  0.00  0.00  0.00  0.00  0.00   2.0  0.00  0.00  0.00  0.00
 2023  46   167    84  14.2  -6.0 42.85 12.15  0.99  2.87 245.1  5.93 0.974  6.90  5221     9   685  4528  2318  2177     0  0.00     0     0   367    33 234.2 12.99   8.2     0     0  1582   256  1.22  0.86  56.9  17.8  1.24  0.00  0.00  0.04  0.00  0.00  0.00   2.0  0.00  0.00  0.00  0.00
 2023  47   168    85  14.1  -6.0 43.56 12.15  0.99  2.87 270.7  5.86 1.009  6.87  5476     9   706  4762  2306  2412     0  0.00     0     0   448    44 234.2 13.47   9.5     0     0  1546   254  1.22  0.86  53.3  15.2  1.51  0.00  0.00  0.00  0.00  0.00  0.00   2.0  0.00  0.00  0.00  0.00
 2023  48   169    86  12.8  -6.0 44.20 12.15  0.99  2.87 195.1  5.79 1.034  6.83  5661     9   721  4931  2296  2581     0  0.00     0     0   509    54 234.2 13.93  10.4     0     0  1514   252  1.22  0.87  97.5  39.1  1.57  0.00  0.00  0.00  0.00  0.00  0.00   2.0  0.00  0.00  0.00  0.00
 2023  49   170    87  17.4  -6.0 45.07 12.15  0.99  2.87 173.7  5.71 1.055  6.76  5825     9   734  5082  2280  2735     0  0.00     0     0   568    68 234.2 14.55  11.3     0     0  1472   250  1.21  0.87 103.9  43.1  7.49  0.00  0.00  0.00  0.00  0.00  0.00   2.0  0.00  0.00  0.00  0.00
 2023  50   171    88  18.8  -6.0 46.01 12.15  0.99  2.87 152.2  5.62 1.071  6.69  5969     9   745  5215  2263  2870     0  0.00     0     0   623    83 234.2 15.24  12.1     0     0  1428   248  1.21  0.88  90.5  41.6  9.62  0.00  0.00  0.00  0.00  0.00  0.00   2.0  0.00  0.00  0.00  0.00
 2023  51   172    89  18.3  -6.0 46.93 12.15  0.99  2.87 187.7  5.53 1.093  6.62  6147     9   758  5381  2247  3036     0  0.00     0     0   688    97 234.2 15.92  13.0     0     0  1387   246  1.21  0.88  84.4  31.7  8.23  0.00  0.00  0.00  0.00  0.00  0.00   2.0  0.00  0.00  0.00  0.00
 2023  52   173    90  16.3  -6.0 47.74 12.15  0.99  2.87 173.4  5.45 1.114  6.57  6312     9   769  5534  2233  3190     0  0.00     0     0   747   110 234.2 16.54  13.8     0     0  1351   244  1.21  0.88  82.4  35.4  9.56  0.00  0.00  0.00  0.00  0.00  0.00   2.0  0.00  0.00  0.00  0.00
 2023  53   174    91  15.3  -6.0 48.51 12.15  0.99  2.87 285.5  5.38 1.153  6.53  6584     9   788  5788  2220  3445     0  0.00     0     0   835   123 234.2 17.13  14.7     0     0  1319   242  1.21  0.89  78.6  20.9  6.01  0.00  0.00  0.00  0.00  0.00  0.00   2.0  0.00  0.00  0.00  0.00
 2023  54   175    92  16.1  -6.0 49.32 12.15  0.99  2.87 286.7  5.31 1.191  6.50  6858     9   805  6044  2205  3586     0  0.00   116   116   925   136 234.2 17.77  15.7     0     0  1287   241  1.21  0.89  74.6  19.1  5.46  0.00  0.00  0.00  0.00  0.00  0.00   2.0  0.00  0.00  0.00  0.00
 2023  55   176    93  13.1  -6.0 49.97 12.15  0.99  2.87 184.4  5.24 1.215  6.46  7034     9   816  6209  2194  3648     0  0.00   220   192   986   147 234.2 18.30  16.3     0     0  1261   239  1.21  0.90  72.2  30.7  7.36  0.00  0.00  0.00  0.00  0.00  0.00   2.0  0.00  0.00  0.00  0.00
 2023  56   177    94  15.6  -6.0 53.78 12.15  0.99  2.87 181.5  5.17 1.238  6.41  7207     9   827  6372  2178  3719     0  0.00   316   266  1047   159 234.2 18.94  16.9     0     0  1231   237  1.21  0.90  69.7  28.5  6.19  0.00  0.00  0.00  0.00  0.00  0.00   2.0  0.00  0.00  0.00  0.00
 2023  57   178    95  17.0  -6.0 58.01 12.15  0.99  2.87 294.7  5.11 1.274  6.39  7491     9   842  6641  2169  3842     0  0.00   461   388  1137   169 234.2 19.64  17.6     0     0  1200   236  1.21  0.91  65.5  16.2  3.19  0.00  0.00  0.00  0.00  0.00  0.00   2.0  0.00  0.00  0.00  0.00
 2023  58   179    96  16.0  -6.0 66.18 12.15  0.99  2.87 294.5  5.06 1.311  6.37  7775     9   855  6912  2161  3951     0  0.00   623   512  1227   177 234.2 20.31  18.2     0     0  1172   234  1.21  0.92  61.4  15.3  2.49  0.00  0.00  0.00  0.00  0.00  0.00   2.0  0.00  0.00  0.00  0.00
 2023  59   180    97  16.1  -6.0 70.54 12.15  0.99  2.87 260.4  5.00 1.343  6.34  8028     9   864  7155  2153  4042     0  0.00   774   622  1309   186 234.2 21.00  18.8     0     0  1145   232  1.21  0.93  57.7  16.2  2.17  0.00  0.00  0.00  0.00  0.00  0.00   2.0  0.00  0.00  0.00  0.00
 2023  60   181    98  12.6  -6.0 71.15 12.15  0.99  2.87  89.1  4.96 1.350  6.31  8115     9   867  7239  2147  4048     6  0.00   846   666  1336   193 234.2 21.55  19.0 16377 .0000  1124   231  1.21  0.94  56.6  51.1  5.56  0.00  0.00  0.00  0.00  0.00  0.00   2.0  0.00  0.00  0.00  0.00
 2023  61   182    99  14.6  -6.0 71.86 12.15  0.99  2.87 305.3  4.91 1.392  6.30  8414     9   875  7530  2139  4176    22  0.00   993   814  1415   201 234.2 22.18  19.4 16377 .0001  1100   229  1.21  0.95  52.6  13.3  1.45  0.00  0.00  0.00  0.00  0.00  0.00   2.0  0.00  0.00  0.00  0.00
 2023  62   183   100  14.9  -6.0 72.58 12.15  0.98  2.87 312.2  4.86 1.436  6.29  8721     9   881  7831  2130  4272    49  0.01  1170   978  1487   209 234.2 22.83  19.6 16377 .0003  1077   228  1.21  0.96  48.4  11.7  1.08  0.00  0.00  0.17  0.00  0.00  0.00   2.0  0.00  0.00  0.00  0.00
 2023  63   184   101  14.5  -6.0 73.28 12.15  0.98  2.34 256.2  4.81 1.470  6.28  8972     9   887  8076  2122  4331    84  0.01  1321  1125  1533   218 234.2 23.47  19.7 16377 .0005  1056   227  1.21  0.96  44.8  10.8  0.82  0.36  0.18  0.37  0.00  0.00  0.00   2.0  0.00  0.00  0.00  0.00
 2023  64   185   102  15.5  -6.0 74.02 12.15  0.98  1.81 200.0  4.76 1.461  6.22  9167     9   893  8265  2113  4394   135  0.02  1396  1176  1680   226 234.2 24.16  21.3 16377 .0008  1033   225  1.21  0.95  41.9   9.7  0.63  0.74  0.37  0.52  0.00  0.00  0.00   2.0  0.00  0.00  0.00  0.00
 2023  65   186   103  16.9  -6.0 74.84 12.15  0.98  1.53 163.6  4.61 1.451  6.06  9326     9   897  8420  2061  4458   206  0.02  1433  1247  1800   262 234.2 24.91  22.6 16377 .0013  1010   224  1.21  0.95  39.5   9.2  0.53  0.93  0.47  0.59  0.00  0.00  0.00   2.0  0.00  0.00  0.00  0.00
 2023  66   187   104  16.9  -6.0 75.66 12.15  0.98  1.70 141.1  4.46 1.442  5.90  9464     9   900  8556  2010  4497   291  0.03  1460  1332  1887   298 234.2 25.67  23.7 16377 .0018   987   222  1.21  0.97  89.9  27.2  0.59  0.81  0.41  0.54  0.00  0.00  0.00   2.0  0.00  0.00  0.00  0.00
 2023  67   188   105  18.4  -6.0 76.54 12.15  0.98  2.87 277.8  4.40 1.432  5.83  9739     9   902  8829  1998  4612   400  0.05  1510  1440  2061   309 234.2 26.49  25.4 16377 .0024   962   220  1.21  0.98  85.8  21.5  4.17  0.00  0.00  0.00  0.00  0.00  0.00   2.0  0.00  0.00  0.00  0.00
 2023  68   189   106  19.7  -6.0 77.50 12.15  0.98  2.87 302.7  4.34 1.421  5.76 10039     9   905  9125  1986  4725   534  0.06  1560  1575  2234   320 234.2 27.38  27.0 16377 .0033   938   219  1.21  0.98  81.1  18.2  5.56  0.00  0.00  0.00  0.00  0.00  0.00   2.0  0.00  0.00  0.00  0.00
 2023  69   190   107  19.4  -6.0 78.43 12.15  0.98  2.87 314.9  4.28 1.410  5.69 10350     9   908  9434  1974  4835   686  0.07  1608  1727  2402   331 234.2 28.26  28.5 16377 .0042   914   217  1.21  0.98  76.3  16.6  5.60  0.00  0.00  0.00  0.00  0.00  0.00   2.0  0.00  0.00  0.00  0.00
 2023  70   191   108  19.6  -6.0 79.38 12.15  0.97  2.87 310.3  4.22 1.400  5.62 10657     9   911  9738  1962  4927   859  0.09  1649  1899  2545   342 234.2 29.15  29.8 16377 .0052   891   215  1.21  0.98  71.5  15.7  5.00  0.00  0.00  0.00  0.00  0.00  0.00   2.0  0.00  0.00  0.00  0.00
 2023  71   192   109  22.8  -6.0 80.18 12.15  0.97  2.87 308.5  4.15 1.388  5.54 10962     9   913 10040  1946  4982  1081  0.11  1675  2122  2638   355 234.2 30.19  30.7 16377 .0066   866   213  1.21  0.98  66.5  13.9  3.46  0.00  0.00  0.00  0.00  0.00  0.00   2.0  0.00  0.18  0.00  0.00
 2023  72   193   110  22.0  -6.0 80.57 12.15  0.97  2.87 314.9  4.11 1.377  5.49 11273     9   916 10349  1945  5033  1315  0.13  1697  2356  2717   360 234.2 31.19  31.3 16377 .0080   843   211  1.21  0.98  61.4  12.8  2.46  0.00  0.00  0.00  0.00  0.00  0.00   2.0  0.00  0.13  0.00  0.00
 2023  73   194   111  19.8  -6.0 80.92 12.15  0.97  2.87 323.0  4.08 1.368  5.45 11593     9   919 10665  1944  5105  1525  0.14  1727  2566  2828   364 234.2 32.10  32.2 16377 .0093   823   210  1.21  0.98  56.4  11.9  1.79  0.00  0.00  0.00  0.00  0.00  0.00   2.0  0.00  0.00  0.00  0.00
 2023  74   195   112  19.5  -6.0 81.26 12.15  0.97  2.87 283.8  4.05 1.358  5.40 11873     9   921 10943  1943  5153  1731  0.16  1747  2772  2904   368 234.2 32.99  32.8 16377 .0106   804   208  1.21  0.98  52.1  12.6  1.49  0.00  0.00  0.00  0.00  0.00  0.00   2.0  0.00  0.00  0.00  0.00
 2023  75   196   113  20.5  -6.0 81.63 12.15  0.97  2.87 259.9  4.01 1.349  5.36 12130     9   924 11198  1941  5177  1949  0.17  1758  2990  2945   373 234.2 33.94  33.2 16377 .0119   785   207  1.21  0.98  48.0  12.6  1.22  0.00  0.00  0.06  0.00  0.00  0.00   2.0  0.00  0.03  0.00  0.00
 2023  76   197   114  20.0  -6.0 81.98 12.15  0.97  2.87 111.1  3.98 1.339  5.32 12240     9   924 11307  1940  5102  2162  0.19  1726  3203  2846   377 234.2 34.86  32.5 16377 .0132   767   205  1.21  0.98 100.7  63.2  2.25  0.00  0.00  0.00  0.00  0.00  0.00   2.0  0.00  0.00  0.00  0.00
 2023  77   198   115  19.0  -6.0 82.32 12.15  0.97  2.87 302.4  3.95 1.331  5.28 12539     9   927 11603  1939  5166  2364  0.20  1753  3405  2944   382 234.2 35.74  33.2 16377 .0144   751   204  1.20  0.98 116.9  27.1  4.90  0.00  0.00  0.00  0.00  0.00  0.00   2.0  0.00  0.00  0.00  0.00
 2023  78   199   116  19.0  -6.0 82.66 12.15  0.97  2.87 317.4  3.92 1.322  5.24 12853     9   930 11915  1937  5241  2566  0.22  1785  3607  3057   386 234.2 36.63  34.1 16377 .0157   735   202  1.20  0.98  99.8  22.0  5.82  0.00  0.00  0.00  0.00  0.00  0.00   2.0  0.00  0.00  0.00  0.00
 2023  79   200   117  19.0  -6.0 83.00 12.15  0.97  2.87 314.4  3.89 1.314  5.20 13164     9   933 12223  1935  5313  2769  0.23  1815  3809  3167   390 234.2 37.51  34.9 16377 .0169   720   201  1.20  0.98  85.4  19.1  5.65  0.00  0.00  0.00  0.00  0.00  0.00   2.0  0.00  0.00  0.00  0.00
 2023  80   201   118  20.1  -6.0 83.35 12.15  0.96  2.87 311.3  3.86 1.305  5.16 13472     9   935 12528  1933  5376  2982  0.24  1842  4023  3264   394 234.2 38.45  35.7 16377 .0182   705   199  1.20  0.98  80.3  18.0  6.14  0.00  0.00  0.00  0.00  0.00  0.00   2.0  0.00  0.01  0.00  0.00
 2023  81   202   119  20.2  -6.0 83.71 12.15  0.96  2.87 311.0  3.82 1.297  5.12 13779     9   938 12832  1931  5437  3197  0.25  1868  4238  3358   399 234.2 39.40  36.4 16377 .0195   690   198  1.20  0.98  75.4  16.5  5.67  0.00  0.00  0.00  0.00  0.00  0.00   2.0  0.00  0.02  0.00  0.00
 2023  82   203   120  19.6  -6.0 84.06 12.15  0.96  2.87 323.1  3.79 1.289  5.08 14099     9   941 13149  1930  5512  3405  0.26  1899  4446  3471   403 234.2 40.32  37.2 16377 .0208   677   197  1.20  0.98  70.4  15.1  4.79  0.00  0.00  0.00  0.00  0.00  0.00   2.0  0.00  0.00  0.00  0.00
 2023  83   204   121  17.6  -6.0 84.37 12.15  0.96  2.87 344.9  3.77 1.282  5.05 14440     9   944 13487  1928  5617  3592  0.27  1943  4633  3626   407 234.2 41.14  38.2 16377 .0219   665   195  1.20  0.98  65.3  13.7  3.42  0.00  0.00  0.00  0.00  0.00  0.00   2.0  0.00  0.00  0.00  0.00
 2023  84   205   122  17.1  -6.0 84.68 12.15  0.96  2.87 330.8  3.74 1.275  5.02 14767     9   948 13811  1927  5715  3773  0.27  1985  4814  3772   411 234.2 41.95  39.2 16377 .0230   654   194  1.20  0.98  60.5  13.3  2.63  0.00  0.00  0.00  0.00  0.00  0.00   2.0  0.00  0.00  0.00  0.00
 2023  85   206   123  17.5  -6.0 84.99 12.15  0.96  2.87 333.2  3.72 1.268  4.99 15097     9   951 14138  1925  5813  3959  0.28  2026  5000  3917   415 234.2 42.78  40.1 16377 .0242   644   193  1.20  0.98  55.5  11.9  1.87  0.00  0.00  0.00  0.00  0.00  0.00   2.0  0.00  0.00  0.00  0.00
 2023  86   207   124  17.5  -6.0 85.30 12.15  0.96  2.87 258.6  3.69 1.261  4.96 15353     9   953 14391  1923  5859  4145  0.29  2045  5186  3988   419 234.2 43.61  40.6 16377 .0253   633   192  1.20  0.98  87.2  24.2  1.76  0.00  0.00  0.00  0.00  0.00  0.00   2.0  0.00  0.00  0.00  0.00
 2023  87   208   125  18.8  -6.0 85.63 12.15  0.95  2.87 310.6  3.53 1.254  4.78 15660     9   956 14696  1849  5942  4344  0.30  2095  5385  4141   466 234.2 44.51  41.9 16377 .0265   623   191  1.20  0.98  82.4  18.5  5.55  0.00  0.00  0.00  0.00  0.00  0.00   2.0  0.00  0.00  0.00  0.00
[...]
 2023  37   158    65  16.7  -6.0 34.17  9.37  0.68  0.57  31.7  1.28 0.168  1.45  1003    15   199   788   460   328     0  0.00     0     0    69     0 165.9 3.371   8.8     0     0   508   278  1.05  0.75  45.9  22.4  0.28  1.00  0.72  0.79  0.00  0.00  0.00   2.0  0.00  0.00  0.00  0.00
 2023  38   159    66  16.2  -6.0 34.94  9.50  0.68  0.52  31.8  1.29 0.171  1.46  1023    15   204   804   467   338     0  0.00     0     0    72     0 173.6 3.533   9.0     0     0   508   276  1.06  0.75  46.3  21.1  0.26  1.00  0.74  0.80  0.00  0.00  0.00   2.0  0.00  0.00  0.00  0.00
 2023  39   160    67  18.1  -6.0 35.81  9.65  0.69  0.48  29.8  1.31 0.174  1.48  1044    15   208   820   474   346     0  0.00     0     0    74     0 180.0 3.718   9.0     0     0   508   275  1.08  0.75  46.9  19.7  0.23  1.00  0.77  0.82  0.00  0.00  0.00   2.0  0.00  0.00  0.00  0.00
 2023  40   161    68  15.1  -6.0 36.53  9.78  0.69  0.49  30.9  1.32 0.178  1.50  1065    15   212   837   482   355     0  0.00     0     0    76     0 186.4 3.875   9.1     0     0   508   274  1.09  0.76  47.3  20.6  0.24  1.00  0.76  0.82  0.00  0.00  0.00   2.0  0.00  0.00  0.00  0.00
 2023  41   162    69  17.1  -6.0 37.34  9.92  0.70  0.52  29.3  1.33 0.181  1.52  1085    15   216   853   489   364     0  0.00     0     0    78     0 192.9 4.057   9.1     0     0   508   273  1.10  0.76  47.8  22.5  0.25  1.00  0.75  0.81  0.00  0.00  0.00   2.0  0.00  0.00  0.00  0.00
 2023  42   163    70  14.0  -6.0 38.01 10.03  0.71  1.53  31.4  1.38 0.188  1.56  1114    15   220   879   507   372     0  0.00     0     0    73     0 192.9 4.208   8.3     0     0   508   272  1.12  0.81  48.1  67.8  0.74  0.51  0.26  0.43  0.00  0.00  0.00   2.0  0.00  0.00  0.00  0.00
 2023  43   164    71  15.7  -6.0 38.76 10.16  0.71  0.50  29.6  1.38 0.191  1.57  1132    15   224   893   510   383     0  0.00     0     0    77     0 201.2 4.381   8.6     0     0   502   270  1.13  0.77  48.6  23.0  0.25  1.00  0.75  0.81  0.00  0.00  0.00   2.0  0.00  0.00  0.00  0.00
 2023  44   165    72  13.9  -6.0 39.42 10.28  0.71  0.78  30.7  1.38 0.194  1.57  1152    15   228   909   514   395     0  0.00     0     0    81     0 209.3 4.536   8.9     0     0   496   268  1.14  0.78  48.9  36.1  0.38  1.00  0.62  0.71  0.00  0.00  0.00   2.0  0.00  0.00  0.00  0.00
 2023  45   166    73  13.7  -6.0 40.07 10.39  0.71  0.51  30.0  1.38 0.197  1.58  1171    15   231   924   518   406     0  0.00     0     0    85     0 217.5 4.692   9.2     0     0   490   266  1.15  0.77  49.2  24.0  0.25  1.00  0.75  0.81  0.00  0.00  0.00   2.0  0.00  0.00  0.00  0.00
 2023  46   167    74  14.2  -6.0 40.78 10.39  0.70  0.62  37.5  1.34 0.197  1.54  1205    15   236   953   505   439     0  0.00     0     0   103     9 217.5 4.856  10.9     0     0   484   265  1.16  0.77  50.6  24.0  0.24  1.00  0.76  0.82  0.00  0.00  0.00   2.0  0.00  0.00  0.00  0.00
 2023  47   168    75  14.1  -6.0 41.49 10.39  0.69  0.59  39.0  1.30 0.199  1.50  1240    15   241   983   492   472     0  0.00     0     0   121    19 217.5 5.023  12.5     0     0   479   264  1.17  0.78  50.0  21.7  0.23  1.00  0.77  0.83  0.00  0.00  0.00   2.0  0.00  0.00  0.00  0.00
 2023  48   169    76  12.8  -6.0 42.13 10.39  0.68  0.81  38.0  1.26 0.200  1.46  1275    15   246  1013   480   506     0  0.00     0     0   139    27 217.5 5.178  14.1     0     0   474   263  1.18  0.79  50.2  31.3  0.31  1.00  0.69  0.76  0.00  0.00  0.00   2.0  0.00  0.00  0.00  0.00
 2023  49   170    77  17.4  -6.0 43.00 10.39  0.66  0.85  35.1  1.22 0.200  1.42  1307    15   250  1041   467   537     0  0.00     0     0   156    37 217.5 5.392  15.6     0     0   468   262  1.20  0.79  56.7  37.3  0.33  1.00  0.67  0.75  0.00  0.00  0.00   2.0  0.00  0.00  0.00  0.00
 2023  50   171    78  18.8  -6.0 43.94 10.39  0.66  2.59  92.0  1.21 0.213  1.42  1394    15   257  1121   463   617     0  0.00     0     0   184    40 217.5 5.627  17.0     0     0   461   260  1.20  0.86  54.6  40.0  1.00  0.01  0.00  0.23  0.00  0.00  0.00   2.0  0.00  0.00  0.00  0.00
 2023  51   172    79  18.3  -6.0 44.85 10.39  0.65  1.15  50.1  1.17 0.215  1.38  1440    15   263  1162   451   662     0  0.00     0     0   205    49 217.5 5.863  18.4     0     0   455   259  1.20  0.81  52.7  31.9  0.44  1.00  0.56  0.66  0.00  0.00  0.00   2.0  0.00  0.00  0.00  0.00
 2023  52   173    80  16.3  -6.0 45.67 10.39  0.63  1.20  47.4  1.13 0.218  1.35  1483    15   268  1200   438   704     0  0.00     0     0   226    58 217.5 6.077  19.8     0     0   449   257  1.20  0.82  51.7  36.5  0.46  1.00  0.54  0.64  0.00  0.00  0.00   2.0  0.00  0.00  0.00  0.00
 2023  53   174    81  15.3  -6.0 46.44 10.39  0.62  0.72  45.9  1.09 0.221  1.31  1526    15   273  1237   427   744     0  0.00     0     0   245    67 217.5 6.283  20.9     0     0   444   256  1.20  0.81  51.0  22.8  0.28  1.00  0.72  0.79  0.00  0.00  0.00   2.0  0.00  0.00  0.00  0.00
 2023  54   175    82  16.1  -6.0 47.24 10.39  0.61  0.69  43.1  1.06 0.223  1.28  1565    15   278  1272   415   782     0  0.00     0     0   264    75 217.5 6.503  22.1     0     0   439   255  1.20  0.81  50.3  22.1  0.26  1.00  0.74  0.80  0.00  0.00  0.00   2.0  0.00  0.00  0.00  0.00
 2023  55   176    83  13.1  -6.0 47.90 10.39  0.60  1.13  44.8  1.02 0.226  1.25  1607    15   282  1309   404   823     0  0.00     0     0   283    83 217.5 6.685  23.1     0     0   435   254  1.20  0.83  49.7  37.1  0.43  1.00  0.57  0.67  0.00  0.00  0.00   2.0  0.00  0.00  0.00  0.00
 2023  56   177    84  15.6  -6.0 48.68 10.39  0.59  1.08  41.4  0.99 0.228  1.22  1645    15   286  1344   392   861     0  0.00     0     0   301    91 217.5 6.906  24.0     0     0   431   253  1.20  0.83  49.1  36.0  0.42  1.00  0.58  0.68  0.00  0.00  0.00   2.0  0.00  0.00  0.00  0.00
 2023  57   178    85  17.0  -6.0 49.53 10.39  0.57  0.65  39.6  0.96 0.230  1.19  1682    15   290  1376   381   882     0  0.00    15    15   319    99 217.5 7.148  25.0     0     0   426   251  1.20  0.82  48.5  21.8  0.25  1.00  0.75  0.81  0.00  0.00  0.00   2.0  0.00  0.00  0.00  0.00
 2023  58   179    86  16.0  -6.0 51.08 10.39  0.56  0.66  39.2  0.93 0.232  1.16  1718    15   294  1408   370   895     0  0.00    37    29   337   107 217.5 7.380  25.9     0     0   422   250  1.20  0.82  47.9  22.3  0.25  1.00  0.75  0.81  0.00  0.00  0.00   2.0  0.00  0.00  0.00  0.00
 2023  59   180    87  16.1  -6.0 53.71 10.39  0.55  0.74  38.1  0.90 0.236  1.14  1753    15   298  1440   361   906     0  0.00    60    44   352   113 217.5 7.617  26.6     0     0   417   249  1.20  0.83  47.4  25.3  0.28  1.00  0.72  0.78  0.00  0.00  0.00   2.0  0.00  0.00  0.00  0.00
 2023  60   181    88  12.6  -6.0 55.77 10.39  0.55  2.37  41.1  0.89 0.241  1.13  1793    15   300  1478   360   919     0  0.00    85    61   365   114 217.5 7.805  26.8     0     0   414   248  1.20  0.91  46.8  82.0  0.91  0.18  0.09  0.30  0.00  0.00  0.00   2.0  0.00  0.00  0.00  0.00
 2023  61   182    89  14.6  -6.0 58.16 10.39  0.54  0.65  38.3  0.87 0.245  1.11  1828    15   303  1510   351   929     0  0.00   109    76   381   120 217.5 8.025  27.4     0     0   410   247  1.20  0.85  46.3  22.8  0.25  1.00  0.75  0.81  0.00  0.00  0.00   2.0  0.00  0.00  0.00  0.00
 2023  62   183    90  14.9  -6.0 61.40 10.39  0.53  0.62  36.8  0.84 0.249  1.09  1863    15   306  1542   343   940     0  0.00   132    90   396   126 217.5 8.251  28.0     0     0   407   246  1.20  0.86  45.8  22.0  0.24  1.00  0.76  0.82  0.00  0.00  0.00   2.0  0.00  0.00  0.00  0.00
 2023  63   184    91  14.5  -6.0 66.96 10.39  0.52  0.61  35.9  0.82 0.253  1.07  1897    15   308  1573   335   951     0  0.00   155   104   411   132 217.5 8.471  28.5     0     0   403   245  1.20  0.87  45.2  21.9  0.23  1.00  0.77  0.82  0.00  0.00  0.00   2.0  0.00  0.00  0.00  0.00
 2023  64   185    92  15.5  -6.0 70.44 10.39  0.51  0.59  34.2  0.80 0.257  1.05  1929    15   311  1603   326   961     0  0.00   177   118   426   138 217.5 8.711  29.1     0     0   399   244  1.20  0.88  44.7  21.3  0.23  1.00  0.77  0.83  0.00  0.00  0.00   2.0  0.00  0.00  0.00  0.00
 2023  65   186    93  16.9  -6.0 71.42 10.39  0.50  0.59  32.7  0.77 0.260  1.03  1960    15   313  1632   318   970     2  0.00   199   133   438   143 217.5 8.973  29.5  3590 .0000   396   243  1.20  0.89  44.3  21.7  0.23  1.00  0.77  0.82  0.00  0.00  0.00   2.0  0.00  0.00  0.00  0.00
 2023  66   187    94  16.9  -6.0 72.39 10.39  0.49  0.76  32.0  0.75 0.264  1.01  1990    15   314  1661   310   975     7  0.00   219   152   447   149 217.5 9.236  29.7  3590 .0002   392   242  1.20  0.91  43.8  28.2  0.29  1.00  0.71  0.78  0.00  0.00  0.00   2.0  0.00  0.00  0.00  0.00
 2023  67   188    95  18.4  -6.0 73.46 10.39  0.48  0.63  30.4  0.73 0.262  0.99  2020    15   315  1689   302   982    18  0.01   232   162   470   155 217.5 9.526  31.0  3590 .0005   388   241  1.20  0.91  43.3  23.7  0.24  1.00  0.76  0.81  0.00  0.00  0.00   2.0  0.00  0.00  0.00  0.00
 2023  68   189    96  19.7  -6.0 74.60 10.39  0.47  0.56  28.9  0.70 0.260  0.96  2047    15   316  1715   294   992    34  0.02   236   178   486   160 217.5 9.836  32.0  3590 .0009   384   240  1.20  0.92  42.9  21.4  0.22  1.00  0.78  0.83  0.00  0.00  0.00   2.0  0.00  0.00  0.00  0.00
 2023  69   190    97  19.4  -6.0 75.72 10.39  0.46  0.54  28.3  0.68 0.258  0.94  2075    15   317  1742   286   997    55  0.03   238   200   497   166 217.5 10.14  32.7  3590 .0015   380   239  1.20  0.94  42.4  21.0  0.21  1.00  0.79  0.84  0.00  0.00  0.00   2.0  0.00  0.00  0.00  0.00
 2023  70   191    98  19.6  -6.0 76.86 10.39  0.44  0.54  27.5  0.66 0.256  0.92  2101    15   318  1768   278   997    82  0.05   239   226   502   171 217.5 10.45  33.1  3590 .0023   376   237  1.20  0.95  42.0  21.4  0.21  1.00  0.79  0.84  0.00  0.00  0.00   2.0  0.00  0.00  0.00  0.00
 2023  71   192    99  22.8  -6.0 78.18 10.39  0.43  0.51  25.3  0.64 0.254  0.89  2126    15   318  1792   270   989   119  0.07   238   263   495   177 217.5 10.82  33.1  3590 .0033   372   236  1.20  0.96  41.6  20.6  0.20  1.00  0.80  0.85  0.00  0.00  0.00   2.0  0.00  0.18  0.00  0.00
 2023  72   193   100  22.0  -6.0 79.45 10.39  0.42  0.51  25.1  0.62 0.252  0.87  2150    15   318  1817   262   975   162  0.09   235   306   482   182 217.5 11.17  32.7  3590 .0045   368   235  1.20  0.98  41.2  20.9  0.20  1.00  0.80  0.85  0.00  0.00  0.00   2.0  0.00  0.13  0.00  0.00
 2023  73   194   101  19.8  -6.0 80.18 10.39  0.41  0.52  25.3  0.60 0.251  0.85  2175    15   318  1842   255   961   206  0.11   232   351   468   187 217.5 11.48  32.3  3590 .0057   365   234  1.20  0.98  40.8  21.5  0.20  1.00  0.80  0.85  0.00  0.00  0.00   2.0  0.00  0.00  0.00  0.00
 2023  74   195   102  19.5  -6.0 80.51 10.39  0.40  0.59  24.9  0.58 0.249  0.83  2199    15   318  1866   249   944   253  0.14   228   398   449   191 217.5 11.79  31.6  3590 .0071   362   233  1.20  0.98  40.4  25.0  0.23  1.00  0.77  0.83  0.00  0.00  0.00   2.0  0.00  0.00  0.00  0.00
 2023  75   196   103  20.5  -6.0 80.87 10.39  0.40  0.64  24.0  0.57 0.247  0.81  2223    15   318  1890   244   924   303  0.16   224   447   426   195 217.5 12.12  30.6  3590 .0084   358   232  1.20  0.98  40.0  27.2  0.24  1.00  0.76  0.81  0.00  0.00  0.00   2.0  0.00  0.03  0.00  0.00
 2023  76   197   104  20.0  -6.0 81.21 10.39  0.39  1.51  24.0  0.55 0.246  0.80  2246    15   318  1913   239   905   351  0.18   219   496   405   198 217.5 12.43  29.7  3590 .0098   355   230  1.20  0.98  50.9  84.7  0.58  0.84  0.42  0.55  0.00  0.00  0.00   2.0  0.00  0.00  0.00  0.00
 2023  77   198   105  19.0  -6.0 81.54 10.39  0.39  2.60 110.1  0.55 0.244  0.79  2355    15   319  2021   239   953   397  0.20   232   542   467   199 217.5 12.74  32.8  3590 .0111   352   229  1.20  0.98  76.6  46.9  1.86  0.00  0.00  0.00  0.00  0.00  0.00   2.0  0.00  0.00  0.00  0.00
 2023  78   199   106  19.0  -6.0 81.87 10.39  0.39  2.60 115.2  0.55 0.243  0.79  2469    15   320  2134   239  1005   443  0.21   247   588   535   199 217.5 13.04  35.9  3590 .0123   350   228  1.20  0.98  72.4  42.4  4.35  0.00  0.00  0.00  0.00  0.00  0.00   2.0  0.00  0.00  0.00  0.00
 2023  79   200   107  19.0  -6.0 82.20 10.39  0.38  2.60 113.8  0.54 0.241  0.78  2582    15   321  2245   239  1056   489  0.22   261   634   601   200 217.5 13.35  38.6  3590 .0136   347   227  1.20  0.98  70.6  42.6  4.65  0.00  0.00  0.00  0.00  0.00  0.00   2.0  0.00  0.00  0.00  0.00
 2023  80   201   108  20.1  -6.0 82.54 10.39  0.38  2.60 112.3  0.54 0.240  0.78  2693    15   322  2356   238  1104   538  0.23   274   682   663   201 217.5 13.67  41.0  3590 .0150   345   227  1.20  0.98  68.8  42.0  4.35  0.00  0.00  0.00  0.00  0.00  0.00   2.0  0.00  0.01  0.00  0.00
 2023  81   202   109  20.2  -6.0 82.89 10.39  0.38  2.60 111.8  0.54 0.238  0.78  2804    15   323  2465   238  1151   587  0.24   288   731   724   201 217.5 13.99  43.2  3590 .0163   342   226  1.20  0.98  67.0  40.0  3.34  0.00  0.00  0.00  0.00  0.00  0.00   2.0  0.00  0.02  0.00  0.00
 2023  82   203   110  19.6  -6.0 83.23 10.39  0.38  2.60 115.8  0.53 0.237  0.77  2918    15   324  2579   238  1203   634  0.25   302   778   791   202 217.5 14.31  45.4  3590 .0177   340   225  1.20  0.98  65.2  38.4  2.72  0.00  0.00  0.00  0.00  0.00  0.00   2.0  0.00  0.00  0.00  0.00
 2023  83   204   111  17.6  -6.0 83.53 10.39  0.38  2.60 123.3  0.53 0.235  0.77  3040    15   325  2699   238  1264   677  0.25   319   821   870   202 217.5 14.60  47.8  3590 .0188   338   224  1.20  0.98  63.4  36.5  2.27  0.00  0.00  0.00  0.00  0.00  0.00   2.0  0.00  0.00  0.00  0.00
 2023  84   205   112  17.1  -6.0 83.83 10.39  0.38  2.60 117.9  0.53 0.234  0.76  3157    15   326  2815   238  1322   718  0.26   335   862   944   203 217.5 14.87  49.8  3590 .0200   336   223  1.20  0.98  61.7  37.5  2.03  0.00  0.00  0.00  0.00  0.00  0.00   2.0  0.00  0.00  0.00  0.00
 2023  85   206   113  17.5  -6.0 84.13 10.39  0.37  2.60 118.5  0.53 0.233  0.76  3274    15   328  2931   237  1379   760  0.26   351   905  1019   203 217.5 15.16  51.8  3590 .0212   334   222  1.20  0.98  59.9  35.6  1.62  0.00  0.00  0.00  0.00  0.00  0.00   2.0  0.00  0.00  0.00  0.00
 2023  86   207   114  17.5  -6.0 84.43 10.39  0.37  2.60  91.7  0.52 0.232  0.76  3365    15   328  3021   237  1416   803  0.27   361   947  1067   204 217.5 15.45  52.9  3590 .0224   332   221  1.20  0.98  58.5  44.9  1.73  0.00  0.00  0.00  0.00  0.00  0.00   2.0  0.00  0.00  0.00  0.00
 2023  87   208   115  18.8  -6.0 84.76 10.39  0.37  2.60 109.9  0.52 0.231  0.75  3473    15   329  3129   237  1465   848  0.27   375   992  1129   204 217.5 15.76  54.4  3590 .0236   330   220  1.20  0.98  56.9  35.5  1.22  0.00  0.00  0.06  0.00  0.00  0.00   2.0  0.00  0.00  0.00  0.00
 2023  88   209   116  18.0  -6.0 85.07 10.39  0.37  2.60 113.3  0.52 0.229  0.75  3586    15   331  3240   237  1517   892  0.28   390  1036  1197   205 217.5 16.05  55.9  3590 .0248   328   220  1.20  0.98  55.2  33.8  1.01  0.00  0.00  0.22  0.00  0.00  0.00   2.0  0.00  0.00  0.00  0.00
 2023  89   210   117  19.3  -6.0 85.40 10.39  0.37  2.24  95.8  0.52 0.228  0.75  3680    15   331  3334   236  1554   938  0.28   400  1082  1245   205 217.5 16.37  56.9  3590 .0261   327   219  1.20  0.98  53.7  32.7  0.86  0.28  0.14  0.34  0.00  0.00  0.00   2.0  0.00  0.00  0.00  0.00
 2023  90   211   118  18.7  -6.0 85.72 10.39  0.37  1.81  85.4  0.51 0.227  0.74  3765    15   332  3417   236  1584   983  0.29   408  1128  1284   206 217.5 16.68  57.6  3590 .0274   325   218  1.20  0.98  52.4  29.6  0.70  0.61  0.30  0.46  0.00  0.00  0.00   2.0  0.00  0.00  0.00  0.00
 2023  91   212   119  19.4  -6.0 86.05 10.39  0.37  1.64  74.7  0.51 0.226  0.74  3838    15   333  3490   236  1604  1030  0.30   414  1174  1311   206 217.5 17.00  58.2  3590 .0287   323   217  1.20  0.98  51.3  29.2  0.63  0.74  0.37  0.52  0.00  0.00  0.00   2.0  0.00  0.00  0.00  0.00
 2023  92   213   120  20.8  -6.0 86.41 10.39  0.35  1.49  66.0  0.48 0.225  0.70  3903    15   333  3555   220  1619  1080  0.30   420  1225  1335   216 217.5 17.35  59.1  3590 .0301   322   216  1.20  0.98  50.2  28.7  0.57  0.86  0.43  0.56  0.00  0.00  0.00   2.0  0.00  0.06  0.00  0.00
 2023  93   214   121  18.6  -6.0 86.74 10.39  0.33  1.58  62.9  0.45 0.224  0.67  3966    15   334  3617   208  1634  1126  0.31   426  1270  1359   224 217.5 17.66  60.0  3590 .0314   320   216  1.20  0.98  49.3  32.5  0.61  0.79  0.39  0.53  0.00  0.00  0.00   2.0  0.00  0.00  0.00  0.00
 2023  94   215   122  17.1  -6.0 87.03 10.39  0.31  1.46  61.0  0.41 0.223  0.64  4026    15   334  3677   193  1651  1167  0.32   433  1311  1387   233 217.5 17.95  60.9  3590 .0325   319   215  1.20  0.98  48.4  32.0  0.56  0.88  0.44  0.57  0.00  0.00  0.00   2.0  0.00  0.00  0.00  0.00
 2023  95   216   123  15.9  -6.0 87.30 10.39  0.29  1.51  58.3  0.38 0.222  0.60  4083    15   334  3734   179  1669  1205  0.32   440  1349  1415   241 217.5 18.21  61.8  3590 .0336   318   214  1.20  0.98  47.6  35.0  0.58  0.84  0.42  0.55  0.00  0.00  0.00   2.0  0.00  0.00  0.00  0.00
 2023  96   217   124  15.9  -6.0 87.58 10.39  0.27  1.42  53.9  0.35 0.221  0.57  4137    15   335  3786   165  1683  1243  0.33   445  1387  1437   249 217.5 18.48  62.6  3590 .0346   316   214  1.20  0.98  46.8  34.6  0.55  0.91  0.45  0.58  0.00  0.00  0.00   2.0  0.00  0.00  0.00  0.00
 2023  97   218   125  17.3  -6.0 87.88 10.39  0.25  1.39  49.3  0.32 0.220  0.54  4185    15   335  3835   153  1691  1285  0.34   449  1429  1452   257 217.5 18.77  63.3  3590 .0358   315   213  1.20  0.98  46.1  35.4  0.54  0.93  0.46  0.59  0.00  0.00  0.00   2.0  0.00  0.00  0.00  0.00
 2023  98   219   126  19.2  -6.0 88.21 10.39  0.23  1.34  44.8  0.30 0.219  0.51  4229    15   335  3879   139  1692  1331  0.34   451  1475  1457   265 217.5 19.09  63.8  3590 .0371   314   212  1.20  0.98  45.4  35.6  0.52  0.97  0.48  0.60  0.00  0.00  0.00   2.0  0.00  0.00  0.00  0.00
 2023  99   220   127  20.0  -6.0 88.55 10.39  0.21  1.35  41.8  0.26 0.217  0.48  4270    15   335  3920   125  1684  1380  0.35   454  1524  1458   277 217.5 19.42  64.4  3590 .0384   313   211  1.20  0.98  44.7  37.2  0.52  0.96  0.48  0.60  0.00  0.00  0.00   2.0  0.00  0.00  0.00  0.00
 2023 100   221   128  19.5  -6.0 88.89 10.39  0.19  1.55  40.1  0.23 0.215  0.45  4310    15   336  3959   110  1676  1427  0.36   457  1571  1459   289 217.5 19.75  65.1  3590 .0397   311   211  1.20  0.98  44.1  44.1  0.59  0.81  0.41  0.54  0.00  0.00  0.00   2.0  0.00  0.00  0.00  0.00
 2023 101   222   129  21.5  -6.0 89.26 10.39  0.16  1.54  37.0  0.20 0.213  0.41  4346    15   336  3995    96  1661  1479  0.37   458  1623  1452   301 217.5 20.11  65.5  3590 .0412   310   210  1.20  0.98  43.5  45.5  0.59  0.81  0.41  0.54  0.00  0.00  0.00   2.0  0.00  0.10  0.00  0.00
 2023 102   223   130  20.7  -6.0 89.61 10.39  0.14  1.74  36.3  0.17 0.211  0.38  4382    15   336  4031    82  1648  1529  0.38   460  1673  1446   313 217.5 20.46  66.0  3590 .0426   309   209  1.20  0.98  43.0  52.8  0.67  0.67  0.33  0.49  0.00  0.00  0.00   2.0  0.00  0.04  0.00  0.00
 2023 103   224   131  20.1  -6.0 89.96 10.39  0.12  2.34  35.8  0.14 0.209  0.35  4417    15   336  4066    69  1635  1577  0.39   461  1721  1440   324 217.5 20.79  66.5  3590 .0439   307   208  1.20  0.98  42.4  73.3  0.90  0.20  0.10  0.31  0.00  0.00  0.00   2.0  0.00  0.01  0.00  0.00
 2023 104   225   132  20.2  -6.0 90.90 10.39  0.10  2.26  34.2  0.12 0.207  0.32  4451    15   336  4099    57  1654  1583  0.39   471  1728  1474   335 217.5 21.13  67.6  3590 .0441   306   208  1.20  0.98  41.9  72.7  0.87  0.26  0.13  0.33  0.00  0.00  0.00   2.0  0.00  0.01  0.00  0.00
